
=== ERROR LOG - 2025-10-14 19:39:26 ===
Input file: /data/retarget/locomotion/raw/AMASS_SMPLXG/EKUT/234/male_stagei.npz
Output file: ../robot/ik_based/pkl/008011.pkl
Robot type: unitree_g1
Processing time: 1.21 seconds
Error message: 'pose_body is not a file in the archive'
Error type: KeyError
==================================================

=== ERROR LOG - 2025-10-14 19:39:26 ===
Input file: /data/retarget/locomotion/raw/AMASS_SMPLXG/EKUT/265/MTR03_stageii.npz
Output file: ../robot/ik_based/pkl/008024.pkl
Robot type: unitree_g1
Processing time: 1.23 seconds

STEP-BY-STEP TIMING (FAILED):
  Load Smplx: 1.07s
Error message: need at least one array to stack
Error type: ValueError
==================================================

=== ERROR LOG - 2025-10-14 19:39:27 ===
Input file: /data/retarget/locomotion/raw/AMASS_SMPLXG/EKUT/265/male_stagei.npz
Output file: ../robot/ik_based/pkl/008083.pkl
Robot type: unitree_g1
Processing time: 1.05 seconds
Error message: 'pose_body is not a file in the archive'
Error type: KeyError
==================================================

=== ERROR LOG - 2025-10-14 19:39:27 ===
Input file: /data/retarget/locomotion/raw/AMASS_SMPLXG/EKUT/300/male_stagei.npz
Output file: ../robot/ik_based/pkl/008219.pkl
Robot type: unitree_g1
Processing time: 1.05 seconds
Error message: 'pose_body is not a file in the archive'
Error type: KeyError
==================================================

=== ERROR LOG - 2025-10-14 19:39:29 ===
Input file: /data/retarget/locomotion/raw/AMASS_SMPLXG/Eyes_Japan_Dataset/frederic/male_stagei.npz
Output file: ../robot/ik_based/pkl/008335.pkl
Robot type: unitree_g1
Processing time: 1.22 seconds
Error message: 'pose_body is not a file in the archive'
Error type: KeyError
==================================================

=== ERROR LOG - 2025-10-14 19:39:29 ===
Input file: /data/retarget/locomotion/raw/AMASS_SMPLXG/Eyes_Japan_Dataset/aita/male_stagei.npz
Output file: ../robot/ik_based/pkl/008280.pkl
Robot type: unitree_g1
Processing time: 1.71 seconds
Error message: 'pose_body is not a file in the archive'
Error type: KeyError
==================================================

=== ERROR LOG - 2025-10-14 19:39:31 ===
Input file: /data/retarget/locomotion/raw/AMASS_SMPLXG/Eyes_Japan_Dataset/hamada/male_stagei.npz
Output file: ../robot/ik_based/pkl/008413.pkl
Robot type: unitree_g1
Processing time: 1.71 seconds
Error message: 'pose_body is not a file in the archive'
Error type: KeyError
==================================================

=== ERROR LOG - 2025-10-14 19:39:31 ===
Input file: /data/retarget/locomotion/raw/AMASS_SMPLXG/Eyes_Japan_Dataset/ichige/male_stagei.npz
Output file: ../robot/ik_based/pkl/008509.pkl
Robot type: unitree_g1
Processing time: 2.06 seconds
Error message: 'pose_body is not a file in the archive'
Error type: KeyError
==================================================

=== SUCCESS LOG - 2025-10-14 19:41:07 ===
Input file: /data/retarget/locomotion/raw/AMASS_SMPLXG/Eyes_Japan_Dataset/ichige/soccer-03-volley_kick-ichige_stageii.npz
Output file: ../robot/ik_based/pkl/008514.pkl
Robot type: unitree_g1
Processing time: 95.90 seconds

STEP-BY-STEP TIMING:
  Step 1 - Load SMPLX:        15.18s
  Step 2 - Align FPS:         12.11s
  Step 3 - Init Retarget:     1.10s
  Step 4 - Init Visualization: 0.00s
  Step 5 - Process Frames:    66.16s (avg: 0.080s/frame)
  Step 6 - Convert Arrays:    0.00s
  Step 7 - Forward Kinematics: 1.11s
  Step 8 - Save Data:         0.01s
Status: SUCCESS
==================================================

=== SUCCESS LOG - 2025-10-14 19:42:19 ===
Input file: /data/retarget/locomotion/raw/AMASS_SMPLXG/Eyes_Japan_Dataset/ichige/sitdown_standup-11-one_knee_drawn_up-ichige_stageii.npz
Output file: ../robot/ik_based/pkl/008513.pkl
Robot type: unitree_g1
Processing time: 167.40 seconds

STEP-BY-STEP TIMING:
  Step 1 - Load SMPLX:        16.02s
  Step 2 - Align FPS:         21.12s
  Step 3 - Init Retarget:     0.34s
  Step 4 - Init Visualization: 0.00s
  Step 5 - Process Frames:    128.81s (avg: 0.069s/frame)
  Step 6 - Convert Arrays:    0.01s
  Step 7 - Forward Kinematics: 0.93s
  Step 8 - Save Data:         0.01s
Status: SUCCESS
==================================================

=== SUCCESS LOG - 2025-10-14 19:42:19 ===
Input file: /data/retarget/locomotion/raw/AMASS_SMPLXG/Eyes_Japan_Dataset/ichige/soccer-11-dribble_3-ichige_stageii.npz
Output file: ../robot/ik_based/pkl/008516.pkl
Robot type: unitree_g1
Processing time: 70.79 seconds

STEP-BY-STEP TIMING:
  Step 1 - Load SMPLX:        3.10s
  Step 2 - Align FPS:         6.52s
  Step 3 - Init Retarget:     0.40s
  Step 4 - Init Visualization: 0.00s
  Step 5 - Process Frames:    59.73s (avg: 0.067s/frame)
  Step 6 - Convert Arrays:    0.01s
  Step 7 - Forward Kinematics: 0.98s
  Step 8 - Save Data:         0.00s
Status: SUCCESS
==================================================

=== SUCCESS LOG - 2025-10-14 19:43:34 ===
Input file: /data/retarget/locomotion/raw/AMASS_SMPLXG/Eyes_Japan_Dataset/ichige/soccer-28-pk_feint-ichige_stageii.npz
Output file: ../robot/ik_based/pkl/008519.pkl
Robot type: unitree_g1
Processing time: 73.78 seconds

STEP-BY-STEP TIMING:
  Step 1 - Load SMPLX:        6.96s
  Step 2 - Align FPS:         9.94s
  Step 3 - Init Retarget:     1.48s
  Step 4 - Init Visualization: 0.00s
  Step 5 - Process Frames:    55.24s (avg: 0.062s/frame)
  Step 6 - Convert Arrays:    0.00s
  Step 7 - Forward Kinematics: 0.10s
  Step 8 - Save Data:         0.02s
Status: SUCCESS
==================================================

=== SUCCESS LOG - 2025-10-14 19:43:39 ===
Input file: /data/retarget/locomotion/raw/AMASS_SMPLXG/Eyes_Japan_Dataset/ichige/soccer-27-pk_inside-ichige_stageii.npz
Output file: ../robot/ik_based/pkl/008518.pkl
Robot type: unitree_g1
Processing time: 78.49 seconds

STEP-BY-STEP TIMING:
  Step 1 - Load SMPLX:        7.32s
  Step 2 - Align FPS:         11.02s
  Step 3 - Init Retarget:     0.28s
  Step 4 - Init Visualization: 0.00s
  Step 5 - Process Frames:    59.79s (avg: 0.067s/frame)
  Step 6 - Convert Arrays:    0.01s
  Step 7 - Forward Kinematics: 0.03s
  Step 8 - Save Data:         0.00s
Status: SUCCESS
==================================================

=== SUCCESS LOG - 2025-10-14 19:45:02 ===
Input file: /data/retarget/locomotion/raw/AMASS_SMPLXG/Eyes_Japan_Dataset/ichige/soccer-31-goal-ichige_stageii.npz
Output file: ../robot/ik_based/pkl/008521.pkl
Robot type: unitree_g1
Processing time: 87.62 seconds

STEP-BY-STEP TIMING:
  Step 1 - Load SMPLX:        4.70s
  Step 2 - Align FPS:         5.70s
  Step 3 - Init Retarget:     0.69s
  Step 4 - Init Visualization: 0.00s
  Step 5 - Process Frames:    76.16s (avg: 0.085s/frame)
  Step 6 - Convert Arrays:    0.00s
  Step 7 - Forward Kinematics: 0.13s
  Step 8 - Save Data:         0.01s
Status: SUCCESS
==================================================

=== SUCCESS LOG - 2025-10-14 19:46:03 ===
Input file: /data/retarget/locomotion/raw/AMASS_SMPLXG/Eyes_Japan_Dataset/ichige/walk-07-moonwalk-ichige_stageii.npz
Output file: ../robot/ik_based/pkl/008522.pkl
Robot type: unitree_g1
Processing time: 143.68 seconds

STEP-BY-STEP TIMING:
  Step 1 - Load SMPLX:        6.67s
  Step 2 - Align FPS:         21.69s
  Step 3 - Init Retarget:     0.27s
  Step 4 - Init Visualization: 0.00s
  Step 5 - Process Frames:    114.65s (avg: 0.061s/frame)
  Step 6 - Convert Arrays:    0.01s
  Step 7 - Forward Kinematics: 0.16s
  Step 8 - Save Data:         0.01s
Status: SUCCESS
==================================================

=== SUCCESS LOG - 2025-10-14 19:47:16 ===
Input file: /data/retarget/locomotion/raw/AMASS_SMPLXG/Eyes_Japan_Dataset/ichige/walk-29-look_down-ichige_stageii.npz
Output file: ../robot/ik_based/pkl/008523.pkl
Robot type: unitree_g1
Processing time: 132.66 seconds

STEP-BY-STEP TIMING:
  Step 1 - Load SMPLX:        6.64s
  Step 2 - Align FPS:         20.60s
  Step 3 - Init Retarget:     0.29s
  Step 4 - Init Visualization: 0.00s
  Step 5 - Process Frames:    104.78s (avg: 0.056s/frame)
  Step 6 - Convert Arrays:    0.01s
  Step 7 - Forward Kinematics: 0.21s
  Step 8 - Save Data:         0.01s
Status: SUCCESS
==================================================

=== SUCCESS LOG - 2025-10-14 19:47:33 ===
Input file: /data/retarget/locomotion/raw/AMASS_SMPLXG/Eyes_Japan_Dataset/kaiwa/accident-01-dodge-kaiwa_stageii.npz
Output file: ../robot/ik_based/pkl/008524.pkl
Robot type: unitree_g1
Processing time: 88.73 seconds

STEP-BY-STEP TIMING:
  Step 1 - Load SMPLX:        2.79s
  Step 2 - Align FPS:         8.36s
  Step 3 - Init Retarget:     0.22s
  Step 4 - Init Visualization: 0.00s
  Step 5 - Process Frames:    77.06s (avg: 0.086s/frame)
  Step 6 - Convert Arrays:    0.00s
  Step 7 - Forward Kinematics: 0.16s
  Step 8 - Save Data:         0.01s
Status: SUCCESS
==================================================

=== SUCCESS LOG - 2025-10-14 19:48:36 ===
Input file: /data/retarget/locomotion/raw/AMASS_SMPLXG/Eyes_Japan_Dataset/kaiwa/accident-03-damage_head-kaiwa_stageii.npz
Output file: ../robot/ik_based/pkl/008526.pkl
Robot type: unitree_g1
Processing time: 78.41 seconds

STEP-BY-STEP TIMING:
  Step 1 - Load SMPLX:        2.92s
  Step 2 - Align FPS:         7.94s
  Step 3 - Init Retarget:     0.22s
  Step 4 - Init Visualization: 0.00s
  Step 5 - Process Frames:    66.97s (avg: 0.074s/frame)
  Step 6 - Convert Arrays:    0.00s
  Step 7 - Forward Kinematics: 0.18s
  Step 8 - Save Data:         0.03s
Status: SUCCESS
==================================================

=== SUCCESS LOG - 2025-10-14 19:48:38 ===
Input file: /data/retarget/locomotion/raw/AMASS_SMPLXG/Eyes_Japan_Dataset/kaiwa/accident-04-damage_right_leg-kaiwa_stageii.npz
Output file: ../robot/ik_based/pkl/008527.pkl
Robot type: unitree_g1
Processing time: 63.74 seconds

STEP-BY-STEP TIMING:
  Step 1 - Load SMPLX:        3.08s
  Step 2 - Align FPS:         8.99s
  Step 3 - Init Retarget:     0.30s
  Step 4 - Init Visualization: 0.00s
  Step 5 - Process Frames:    51.31s (avg: 0.057s/frame)
  Step 6 - Convert Arrays:    0.00s
  Step 7 - Forward Kinematics: 0.02s
  Step 8 - Save Data:         0.00s
Status: SUCCESS
==================================================

=== SUCCESS LOG - 2025-10-14 19:50:04 ===
Input file: /data/retarget/locomotion/raw/AMASS_SMPLXG/Eyes_Japan_Dataset/kaiwa/accident-08-damage_rightfoot-kaiwa_stageii.npz
Output file: ../robot/ik_based/pkl/008530.pkl
Robot type: unitree_g1
Processing time: 85.44 seconds

STEP-BY-STEP TIMING:
  Step 1 - Load SMPLX:        6.81s
  Step 2 - Align FPS:         11.47s
  Step 3 - Init Retarget:     0.25s
  Step 4 - Init Visualization: 0.00s
  Step 5 - Process Frames:    66.62s (avg: 0.074s/frame)
  Step 6 - Convert Arrays:    0.00s
  Step 7 - Forward Kinematics: 0.16s
  Step 8 - Save Data:         0.01s
Status: SUCCESS
==================================================

=== SUCCESS LOG - 2025-10-14 19:50:06 ===
Input file: /data/retarget/locomotion/raw/AMASS_SMPLXG/Eyes_Japan_Dataset/kaiwa/accident-07-damage_left_arm-kaiwa_stageii.npz
Output file: ../robot/ik_based/pkl/008529.pkl
Robot type: unitree_g1
Processing time: 90.16 seconds

STEP-BY-STEP TIMING:
  Step 1 - Load SMPLX:        7.92s
  Step 2 - Align FPS:         10.95s
  Step 3 - Init Retarget:     1.53s
  Step 4 - Init Visualization: 0.00s
  Step 5 - Process Frames:    69.65s (avg: 0.077s/frame)
  Step 6 - Convert Arrays:    0.01s
  Step 7 - Forward Kinematics: 0.03s
  Step 8 - Save Data:         0.00s
Status: SUCCESS
==================================================

=== SUCCESS LOG - 2025-10-14 19:51:34 ===
Input file: /data/retarget/locomotion/raw/AMASS_SMPLXG/Eyes_Japan_Dataset/kaiwa/accident-09-damage_leftfoot-kaiwa_stageii.npz
Output file: ../robot/ik_based/pkl/008531.pkl
Robot type: unitree_g1
Processing time: 89.54 seconds

STEP-BY-STEP TIMING:
  Step 1 - Load SMPLX:        12.21s
  Step 2 - Align FPS:         10.10s
  Step 3 - Init Retarget:     1.42s
  Step 4 - Init Visualization: 0.00s
  Step 5 - Process Frames:    65.53s (avg: 0.073s/frame)
  Step 6 - Convert Arrays:    0.00s
  Step 7 - Forward Kinematics: 0.14s
  Step 8 - Save Data:         0.01s
Status: SUCCESS
==================================================

=== SUCCESS LOG - 2025-10-14 19:51:47 ===
Input file: /data/retarget/locomotion/raw/AMASS_SMPLXG/Eyes_Japan_Dataset/kaiwa/accident-10-spasm-kaiwa_stageii.npz
Output file: ../robot/ik_based/pkl/008532.pkl
Robot type: unitree_g1
Processing time: 99.47 seconds

STEP-BY-STEP TIMING:
  Step 1 - Load SMPLX:        10.46s
  Step 2 - Align FPS:         10.38s
  Step 3 - Init Retarget:     0.27s
  Step 4 - Init Visualization: 0.00s
  Step 5 - Process Frames:    78.06s (avg: 0.087s/frame)
  Step 6 - Convert Arrays:    0.00s
  Step 7 - Forward Kinematics: 0.15s
  Step 8 - Save Data:         0.01s
Status: SUCCESS
==================================================

=== SUCCESS LOG - 2025-10-14 19:52:47 ===
Input file: /data/retarget/locomotion/raw/AMASS_SMPLXG/Eyes_Japan_Dataset/kaiwa/accident-14-dodge_turn_down-kaiwa_stageii.npz
Output file: ../robot/ik_based/pkl/008535.pkl
Robot type: unitree_g1
Processing time: 60.39 seconds

STEP-BY-STEP TIMING:
  Step 1 - Load SMPLX:        2.45s
  Step 2 - Align FPS:         5.75s
  Step 3 - Init Retarget:     0.66s
  Step 4 - Init Visualization: 0.00s
  Step 5 - Process Frames:    51.18s (avg: 0.102s/frame)
  Step 6 - Convert Arrays:    0.00s
  Step 7 - Forward Kinematics: 0.16s
  Step 8 - Save Data:         0.01s
Status: SUCCESS
==================================================

=== SUCCESS LOG - 2025-10-14 19:52:58 ===
Input file: /data/retarget/locomotion/raw/AMASS_SMPLXG/Eyes_Japan_Dataset/kaiwa/accident-13-damage_back-kaiwa_stageii.npz
Output file: ../robot/ik_based/pkl/008534.pkl
Robot type: unitree_g1
Processing time: 83.11 seconds

STEP-BY-STEP TIMING:
  Step 1 - Load SMPLX:        2.93s
  Step 2 - Align FPS:         8.64s
  Step 3 - Init Retarget:     0.31s
  Step 4 - Init Visualization: 0.00s
  Step 5 - Process Frames:    71.16s (avg: 0.079s/frame)
  Step 6 - Convert Arrays:    0.00s
  Step 7 - Forward Kinematics: 0.03s
  Step 8 - Save Data:         0.00s
Status: SUCCESS
==================================================

=== ERROR LOG - 2025-10-14 19:53:01 ===
Input file: /data/retarget/locomotion/raw/AMASS_SMPLXG/Eyes_Japan_Dataset/kaiwa/female_stagei.npz
Output file: ../robot/ik_based/pkl/008538.pkl
Robot type: unitree_g1
Processing time: 1.53 seconds
Error message: 'pose_body is not a file in the archive'
Error type: KeyError
==================================================

=== SUCCESS LOG - 2025-10-14 19:54:12 ===
Input file: /data/retarget/locomotion/raw/AMASS_SMPLXG/Eyes_Japan_Dataset/kaiwa/gesture_etc-01-set_1-kaiwa_stageii.npz
Output file: ../robot/ik_based/pkl/008539.pkl
Robot type: unitree_g1
Processing time: 71.40 seconds

STEP-BY-STEP TIMING:
  Step 1 - Load SMPLX:        2.92s
  Step 2 - Align FPS:         10.27s
  Step 3 - Init Retarget:     0.36s
  Step 4 - Init Visualization: 0.00s
  Step 5 - Process Frames:    57.20s (avg: 0.064s/frame)
  Step 6 - Convert Arrays:    0.00s
  Step 7 - Forward Kinematics: 0.45s
  Step 8 - Save Data:         0.01s
Status: SUCCESS
==================================================

=== SUCCESS LOG - 2025-10-14 19:54:21 ===
Input file: /data/retarget/locomotion/raw/AMASS_SMPLXG/Eyes_Japan_Dataset/kaiwa/audience-02-standing_set_2-kaiwa_stageii.npz
Output file: ../robot/ik_based/pkl/008537.pkl
Robot type: unitree_g1
Processing time: 93.58 seconds

STEP-BY-STEP TIMING:
  Step 1 - Load SMPLX:        2.78s
  Step 2 - Align FPS:         8.40s
  Step 3 - Init Retarget:     0.40s
  Step 4 - Init Visualization: 0.00s
  Step 5 - Process Frames:    81.80s (avg: 0.091s/frame)
  Step 6 - Convert Arrays:    0.00s
  Step 7 - Forward Kinematics: 0.10s
  Step 8 - Save Data:         0.01s
Status: SUCCESS
==================================================

=== SUCCESS LOG - 2025-10-14 19:55:22 ===
Input file: /data/retarget/locomotion/raw/AMASS_SMPLXG/Eyes_Japan_Dataset/kaiwa/gesture_etc-05-touch_nose-kaiwa_stageii.npz
Output file: ../robot/ik_based/pkl/008541.pkl
Robot type: unitree_g1
Processing time: 68.77 seconds

STEP-BY-STEP TIMING:
  Step 1 - Load SMPLX:        2.93s
  Step 2 - Align FPS:         7.15s
  Step 3 - Init Retarget:     0.36s
  Step 4 - Init Visualization: 0.00s
  Step 5 - Process Frames:    58.06s (avg: 0.065s/frame)
  Step 6 - Convert Arrays:    0.00s
  Step 7 - Forward Kinematics: 0.14s
  Step 8 - Save Data:         0.01s
Status: SUCCESS
==================================================

=== SUCCESS LOG - 2025-10-14 19:55:24 ===
Input file: /data/retarget/locomotion/raw/AMASS_SMPLXG/Eyes_Japan_Dataset/kaiwa/gesture_etc-06-jiggle_knee-kaiwa_stageii.npz
Output file: ../robot/ik_based/pkl/008542.pkl
Robot type: unitree_g1
Processing time: 61.07 seconds

STEP-BY-STEP TIMING:
  Step 1 - Load SMPLX:        2.57s
  Step 2 - Align FPS:         9.36s
  Step 3 - Init Retarget:     0.36s
  Step 4 - Init Visualization: 0.00s
  Step 5 - Process Frames:    48.70s (avg: 0.054s/frame)
  Step 6 - Convert Arrays:    0.00s
  Step 7 - Forward Kinematics: 0.03s
  Step 8 - Save Data:         0.00s
Status: SUCCESS
==================================================

=== SUCCESS LOG - 2025-10-14 19:56:45 ===
Input file: /data/retarget/locomotion/raw/AMASS_SMPLXG/Eyes_Japan_Dataset/kaiwa/gesture_etc-09-scratch-kaiwa_stageii.npz
Output file: ../robot/ik_based/pkl/008544.pkl
Robot type: unitree_g1
Processing time: 80.22 seconds

STEP-BY-STEP TIMING:
  Step 1 - Load SMPLX:        2.43s
  Step 2 - Align FPS:         11.79s
  Step 3 - Init Retarget:     0.30s
  Step 4 - Init Visualization: 0.00s
  Step 5 - Process Frames:    65.40s (avg: 0.073s/frame)
  Step 6 - Convert Arrays:    0.00s
  Step 7 - Forward Kinematics: 0.15s
  Step 8 - Save Data:         0.00s
Status: SUCCESS
==================================================

=== SUCCESS LOG - 2025-10-14 19:56:53 ===
Input file: /data/retarget/locomotion/raw/AMASS_SMPLXG/Eyes_Japan_Dataset/kaiwa/gesture_etc-07-over_stretch-kaiwa_stageii.npz
Output file: ../robot/ik_based/pkl/008543.pkl
Robot type: unitree_g1
Processing time: 90.91 seconds

STEP-BY-STEP TIMING:
  Step 1 - Load SMPLX:        4.32s
  Step 2 - Align FPS:         11.14s
  Step 3 - Init Retarget:     1.53s
  Step 4 - Init Visualization: 0.00s
  Step 5 - Process Frames:    73.52s (avg: 0.082s/frame)
  Step 6 - Convert Arrays:    0.00s
  Step 7 - Forward Kinematics: 0.25s
  Step 8 - Save Data:         0.01s
Status: SUCCESS
==================================================

=== SUCCESS LOG - 2025-10-14 19:58:21 ===
Input file: /data/retarget/locomotion/raw/AMASS_SMPLXG/Eyes_Japan_Dataset/kaiwa/gesture_etc-18-eat-kaiwa_stageii.npz
Output file: ../robot/ik_based/pkl/008546.pkl
Robot type: unitree_g1
Processing time: 94.84 seconds

STEP-BY-STEP TIMING:
  Step 1 - Load SMPLX:        3.16s
  Step 2 - Align FPS:         7.71s
  Step 3 - Init Retarget:     0.25s
  Step 4 - Init Visualization: 0.00s
  Step 5 - Process Frames:    83.27s (avg: 0.093s/frame)
  Step 6 - Convert Arrays:    0.00s
  Step 7 - Forward Kinematics: 0.31s
  Step 8 - Save Data:         0.00s
Status: SUCCESS
==================================================

=== SUCCESS LOG - 2025-10-14 19:58:24 ===
Input file: /data/retarget/locomotion/raw/AMASS_SMPLXG/Eyes_Japan_Dataset/kaiwa/gesture_etc-22-mobile_receive-kaiwa_stageii.npz
Output file: ../robot/ik_based/pkl/008547.pkl
Robot type: unitree_g1
Processing time: 90.00 seconds

STEP-BY-STEP TIMING:
  Step 1 - Load SMPLX:        4.74s
  Step 2 - Align FPS:         9.19s
  Step 3 - Init Retarget:     0.25s
  Step 4 - Init Visualization: 0.00s
  Step 5 - Process Frames:    75.76s (avg: 0.084s/frame)
  Step 6 - Convert Arrays:    0.00s
  Step 7 - Forward Kinematics: 0.02s
  Step 8 - Save Data:         0.00s
Status: SUCCESS
==================================================

=== SUCCESS LOG - 2025-10-14 19:59:40 ===
Input file: /data/retarget/locomotion/raw/AMASS_SMPLXG/Eyes_Japan_Dataset/kaiwa/gesture_etc-25-magic-kaiwa_stageii.npz
Output file: ../robot/ik_based/pkl/008550.pkl
Robot type: unitree_g1
Processing time: 75.37 seconds

STEP-BY-STEP TIMING:
  Step 1 - Load SMPLX:        2.22s
  Step 2 - Align FPS:         12.00s
  Step 3 - Init Retarget:     0.21s
  Step 4 - Init Visualization: 0.00s
  Step 5 - Process Frames:    60.53s (avg: 0.067s/frame)
  Step 6 - Convert Arrays:    0.00s
  Step 7 - Forward Kinematics: 0.21s
  Step 8 - Save Data:         0.01s
Status: SUCCESS
==================================================

=== SUCCESS LOG - 2025-10-14 20:00:16 ===
Input file: /data/retarget/locomotion/raw/AMASS_SMPLXG/Eyes_Japan_Dataset/kaiwa/gesture_etc-24-matrix-kaiwa_stageii.npz
Output file: ../robot/ik_based/pkl/008549.pkl
Robot type: unitree_g1
Processing time: 114.08 seconds

STEP-BY-STEP TIMING:
  Step 1 - Load SMPLX:        3.85s
  Step 2 - Align FPS:         10.71s
  Step 3 - Init Retarget:     0.26s
  Step 4 - Init Visualization: 0.00s
  Step 5 - Process Frames:    98.90s (avg: 0.110s/frame)
  Step 6 - Convert Arrays:    0.00s
  Step 7 - Forward Kinematics: 0.17s
  Step 8 - Save Data:         0.01s
Status: SUCCESS
==================================================

=== SUCCESS LOG - 2025-10-14 20:00:55 ===
Input file: /data/retarget/locomotion/raw/AMASS_SMPLXG/Eyes_Japan_Dataset/kaiwa/gesture_etc-30-fxxk-kaiwa_stageii.npz
Output file: ../robot/ik_based/pkl/008552.pkl
Robot type: unitree_g1
Processing time: 74.87 seconds

STEP-BY-STEP TIMING:
  Step 1 - Load SMPLX:        3.08s
  Step 2 - Align FPS:         10.25s
  Step 3 - Init Retarget:     0.27s
  Step 4 - Init Visualization: 0.00s
  Step 5 - Process Frames:    60.87s (avg: 0.068s/frame)
  Step 6 - Convert Arrays:    0.00s
  Step 7 - Forward Kinematics: 0.21s
  Step 8 - Save Data:         0.01s
Status: SUCCESS
==================================================

=== SUCCESS LOG - 2025-10-14 20:01:20 ===
Input file: /data/retarget/locomotion/raw/AMASS_SMPLXG/Eyes_Japan_Dataset/kaiwa/gesture_etc-31-ok-kaiwa_stageii.npz
Output file: ../robot/ik_based/pkl/008553.pkl
Robot type: unitree_g1
Processing time: 63.38 seconds

STEP-BY-STEP TIMING:
  Step 1 - Load SMPLX:        2.82s
  Step 2 - Align FPS:         9.06s
  Step 3 - Init Retarget:     0.24s
  Step 4 - Init Visualization: 0.00s
  Step 5 - Process Frames:    50.89s (avg: 0.057s/frame)
  Step 6 - Convert Arrays:    0.00s
  Step 7 - Forward Kinematics: 0.19s
  Step 8 - Save Data:         0.01s
Status: SUCCESS
==================================================

=== SUCCESS LOG - 2025-10-14 20:02:31 ===
Input file: /data/retarget/locomotion/raw/AMASS_SMPLXG/Eyes_Japan_Dataset/kaiwa/gesture_etc-32-no-kaiwa_stageii.npz
Output file: ../robot/ik_based/pkl/008554.pkl
Robot type: unitree_g1
Processing time: 95.24 seconds

STEP-BY-STEP TIMING:
  Step 1 - Load SMPLX:        3.15s
  Step 2 - Align FPS:         10.56s
  Step 3 - Init Retarget:     0.45s
  Step 4 - Init Visualization: 0.00s
  Step 5 - Process Frames:    80.77s (avg: 0.090s/frame)
  Step 6 - Convert Arrays:    0.00s
  Step 7 - Forward Kinematics: 0.17s
  Step 8 - Save Data:         0.01s
Status: SUCCESS
==================================================

=== SUCCESS LOG - 2025-10-14 20:02:55 ===
Input file: /data/retarget/locomotion/raw/AMASS_SMPLXG/Eyes_Japan_Dataset/kaiwa/gesture_etc-33-watch_here-kaiwa_stageii.npz
Output file: ../robot/ik_based/pkl/008555.pkl
Robot type: unitree_g1
Processing time: 94.79 seconds

STEP-BY-STEP TIMING:
  Step 1 - Load SMPLX:        3.07s
  Step 2 - Align FPS:         8.02s
  Step 3 - Init Retarget:     0.30s
  Step 4 - Init Visualization: 0.00s
  Step 5 - Process Frames:    83.03s (avg: 0.092s/frame)
  Step 6 - Convert Arrays:    0.00s
  Step 7 - Forward Kinematics: 0.19s
  Step 8 - Save Data:         0.01s
Status: SUCCESS
==================================================

=== SUCCESS LOG - 2025-10-14 20:04:21 ===
Input file: /data/retarget/locomotion/raw/AMASS_SMPLXG/Eyes_Japan_Dataset/kaiwa/gesture_etc-35-west_side-kaiwa_stageii.npz
Output file: ../robot/ik_based/pkl/008557.pkl
Robot type: unitree_g1
Processing time: 109.11 seconds

STEP-BY-STEP TIMING:
  Step 1 - Load SMPLX:        3.17s
  Step 2 - Align FPS:         9.92s
  Step 3 - Init Retarget:     0.25s
  Step 4 - Init Visualization: 0.00s
  Step 5 - Process Frames:    95.43s (avg: 0.106s/frame)
  Step 6 - Convert Arrays:    0.00s
  Step 7 - Forward Kinematics: 0.19s
  Step 8 - Save Data:         0.01s
Status: SUCCESS
==================================================

=== SUCCESS LOG - 2025-10-14 20:04:34 ===
Input file: /data/retarget/locomotion/raw/AMASS_SMPLXG/Eyes_Japan_Dataset/kaiwa/gesture_etc-37-gay-kaiwa_stageii.npz
Output file: ../robot/ik_based/pkl/008558.pkl
Robot type: unitree_g1
Processing time: 98.65 seconds

STEP-BY-STEP TIMING:
  Step 1 - Load SMPLX:        3.36s
  Step 2 - Align FPS:         9.90s
  Step 3 - Init Retarget:     0.27s
  Step 4 - Init Visualization: 0.00s
  Step 5 - Process Frames:    84.75s (avg: 0.094s/frame)
  Step 6 - Convert Arrays:    0.00s
  Step 7 - Forward Kinematics: 0.15s
  Step 8 - Save Data:         0.01s
Status: SUCCESS
==================================================

=== SUCCESS LOG - 2025-10-14 20:05:51 ===
Input file: /data/retarget/locomotion/raw/AMASS_SMPLXG/Eyes_Japan_Dataset/kaiwa/gesture_etc-40-head_banging-kaiwa_stageii.npz
Output file: ../robot/ik_based/pkl/008561.pkl
Robot type: unitree_g1
Processing time: 75.97 seconds

STEP-BY-STEP TIMING:
  Step 1 - Load SMPLX:        3.05s
  Step 2 - Align FPS:         9.03s
  Step 3 - Init Retarget:     0.22s
  Step 4 - Init Visualization: 0.00s
  Step 5 - Process Frames:    63.28s (avg: 0.070s/frame)
  Step 6 - Convert Arrays:    0.00s
  Step 7 - Forward Kinematics: 0.18s
  Step 8 - Save Data:         0.01s
Status: SUCCESS
==================================================

=== SUCCESS LOG - 2025-10-14 20:05:53 ===
Input file: /data/retarget/locomotion/raw/AMASS_SMPLXG/Eyes_Japan_Dataset/kaiwa/gesture_etc-39-giant_baba-kaiwa_stageii.npz
Output file: ../robot/ik_based/pkl/008560.pkl
Robot type: unitree_g1
Processing time: 91.09 seconds

STEP-BY-STEP TIMING:
  Step 1 - Load SMPLX:        2.62s
  Step 2 - Align FPS:         9.72s
  Step 3 - Init Retarget:     0.22s
  Step 4 - Init Visualization: 0.00s
  Step 5 - Process Frames:    78.46s (avg: 0.087s/frame)
  Step 6 - Convert Arrays:    0.00s
  Step 7 - Forward Kinematics: 0.02s
  Step 8 - Save Data:         0.00s
Status: SUCCESS
==================================================

=== SUCCESS LOG - 2025-10-14 20:07:12 ===
Input file: /data/retarget/locomotion/raw/AMASS_SMPLXG/Eyes_Japan_Dataset/kaiwa/gesture_etc-42-hung_over-kaiwa_stageii.npz
Output file: ../robot/ik_based/pkl/008563.pkl
Robot type: unitree_g1
Processing time: 80.77 seconds

STEP-BY-STEP TIMING:
  Step 1 - Load SMPLX:        7.54s
  Step 2 - Align FPS:         11.51s
  Step 3 - Init Retarget:     1.60s
  Step 4 - Init Visualization: 0.00s
  Step 5 - Process Frames:    59.89s (avg: 0.067s/frame)
  Step 6 - Convert Arrays:    0.00s
  Step 7 - Forward Kinematics: 0.18s
  Step 8 - Save Data:         0.00s
Status: SUCCESS
==================================================

=== SUCCESS LOG - 2025-10-14 20:07:14 ===
Input file: /data/retarget/locomotion/raw/AMASS_SMPLXG/Eyes_Japan_Dataset/kaiwa/gesture_etc-43-brush_teeth-kaiwa_stageii.npz
Output file: ../robot/ik_based/pkl/008564.pkl
Robot type: unitree_g1
Processing time: 80.57 seconds

STEP-BY-STEP TIMING:
  Step 1 - Load SMPLX:        7.23s
  Step 2 - Align FPS:         11.46s
  Step 3 - Init Retarget:     0.28s
  Step 4 - Init Visualization: 0.00s
  Step 5 - Process Frames:    61.54s (avg: 0.068s/frame)
  Step 6 - Convert Arrays:    0.00s
  Step 7 - Forward Kinematics: 0.02s
  Step 8 - Save Data:         0.00s
Status: SUCCESS
==================================================

=== SUCCESS LOG - 2025-10-14 20:08:33 ===
Input file: /data/retarget/locomotion/raw/AMASS_SMPLXG/Eyes_Japan_Dataset/kaiwa/gesture_etc-46-vomit_of_blood-kaiwa_stageii.npz
Output file: ../robot/ik_based/pkl/008566.pkl
Robot type: unitree_g1
Processing time: 78.02 seconds

STEP-BY-STEP TIMING:
  Step 1 - Load SMPLX:        2.52s
  Step 2 - Align FPS:         12.58s
  Step 3 - Init Retarget:     0.19s
  Step 4 - Init Visualization: 0.00s
  Step 5 - Process Frames:    62.41s (avg: 0.069s/frame)
  Step 6 - Convert Arrays:    0.00s
  Step 7 - Forward Kinematics: 0.16s
  Step 8 - Save Data:         0.01s
Status: SUCCESS
==================================================

=== SUCCESS LOG - 2025-10-14 20:08:50 ===
Input file: /data/retarget/locomotion/raw/AMASS_SMPLXG/Eyes_Japan_Dataset/kaiwa/gesture_etc-45-feel_dizzy_-kaiwa_stageii.npz
Output file: ../robot/ik_based/pkl/008565.pkl
Robot type: unitree_g1
Processing time: 96.60 seconds

STEP-BY-STEP TIMING:
  Step 1 - Load SMPLX:        3.21s
  Step 2 - Align FPS:         11.86s
  Step 3 - Init Retarget:     1.54s
  Step 4 - Init Visualization: 0.00s
  Step 5 - Process Frames:    79.77s (avg: 0.089s/frame)
  Step 6 - Convert Arrays:    0.00s
  Step 7 - Forward Kinematics: 0.10s
  Step 8 - Save Data:         0.00s
Status: SUCCESS
==================================================

=== SUCCESS LOG - 2025-10-14 20:10:03 ===
Input file: /data/retarget/locomotion/raw/AMASS_SMPLXG/Eyes_Japan_Dataset/kaiwa/gesture_etc-48-medium_drum-kaiwa_stageii.npz
Output file: ../robot/ik_based/pkl/008568.pkl
Robot type: unitree_g1
Processing time: 90.27 seconds

STEP-BY-STEP TIMING:
  Step 1 - Load SMPLX:        2.86s
  Step 2 - Align FPS:         9.03s
  Step 3 - Init Retarget:     0.29s
  Step 4 - Init Visualization: 0.00s
  Step 5 - Process Frames:    77.79s (avg: 0.086s/frame)
  Step 6 - Convert Arrays:    0.00s
  Step 7 - Forward Kinematics: 0.14s
  Step 8 - Save Data:         0.00s
Status: SUCCESS
==================================================

=== SUCCESS LOG - 2025-10-14 20:10:06 ===
Input file: /data/retarget/locomotion/raw/AMASS_SMPLXG/Eyes_Japan_Dataset/kaiwa/gesture_etc-49-taiko_under-kaiwa_stageii.npz
Output file: ../robot/ik_based/pkl/008569.pkl
Robot type: unitree_g1
Processing time: 75.60 seconds

STEP-BY-STEP TIMING:
  Step 1 - Load SMPLX:        3.02s
  Step 2 - Align FPS:         8.67s
  Step 3 - Init Retarget:     0.24s
  Step 4 - Init Visualization: 0.00s
  Step 5 - Process Frames:    63.61s (avg: 0.071s/frame)
  Step 6 - Convert Arrays:    0.00s
  Step 7 - Forward Kinematics: 0.03s
  Step 8 - Save Data:         0.00s
Status: SUCCESS
==================================================

=== SUCCESS LOG - 2025-10-14 20:11:18 ===
Input file: /data/retarget/locomotion/raw/AMASS_SMPLXG/Eyes_Japan_Dataset/kaiwa/greeting-02-bye-kaiwa_stageii.npz
Output file: ../robot/ik_based/pkl/008571.pkl
Robot type: unitree_g1
Processing time: 74.57 seconds

STEP-BY-STEP TIMING:
  Step 1 - Load SMPLX:        3.71s
  Step 2 - Align FPS:         9.03s
  Step 3 - Init Retarget:     0.49s
  Step 4 - Init Visualization: 0.00s
  Step 5 - Process Frames:    61.04s (avg: 0.068s/frame)
  Step 6 - Convert Arrays:    0.00s
  Step 7 - Forward Kinematics: 0.16s
  Step 8 - Save Data:         0.01s
Status: SUCCESS
==================================================

=== SUCCESS LOG - 2025-10-14 20:11:20 ===
Input file: /data/retarget/locomotion/raw/AMASS_SMPLXG/Eyes_Japan_Dataset/kaiwa/greeting-03-election-kaiwa_stageii.npz
Output file: ../robot/ik_based/pkl/008572.pkl
Robot type: unitree_g1
Processing time: 73.16 seconds

STEP-BY-STEP TIMING:
  Step 1 - Load SMPLX:        2.94s
  Step 2 - Align FPS:         11.77s
  Step 3 - Init Retarget:     0.22s
  Step 4 - Init Visualization: 0.00s
  Step 5 - Process Frames:    58.16s (avg: 0.065s/frame)
  Step 6 - Convert Arrays:    0.00s
  Step 7 - Forward Kinematics: 0.02s
  Step 8 - Save Data:         0.00s
Status: SUCCESS
==================================================

=== SUCCESS LOG - 2025-10-14 20:12:36 ===
Input file: /data/retarget/locomotion/raw/AMASS_SMPLXG/Eyes_Japan_Dataset/kaiwa/greeting-05-salute_(chest)-kaiwa_stageii.npz
Output file: ../robot/ik_based/pkl/008574.pkl
Robot type: unitree_g1
Processing time: 77.01 seconds

STEP-BY-STEP TIMING:
  Step 1 - Load SMPLX:        4.12s
  Step 2 - Align FPS:         11.80s
  Step 3 - Init Retarget:     0.87s
  Step 4 - Init Visualization: 0.01s
  Step 5 - Process Frames:    60.03s (avg: 0.067s/frame)
  Step 6 - Convert Arrays:    0.01s
  Step 7 - Forward Kinematics: 0.12s
  Step 8 - Save Data:         0.00s
Status: SUCCESS
==================================================

=== SUCCESS LOG - 2025-10-14 20:12:36 ===
Input file: /data/retarget/locomotion/raw/AMASS_SMPLXG/Eyes_Japan_Dataset/kaiwa/greeting-07-bow-kaiwa_stageii.npz
Output file: ../robot/ik_based/pkl/008575.pkl
Robot type: unitree_g1
Processing time: 75.50 seconds

STEP-BY-STEP TIMING:
  Step 1 - Load SMPLX:        3.15s
  Step 2 - Align FPS:         13.19s
  Step 3 - Init Retarget:     0.32s
  Step 4 - Init Visualization: 0.00s
  Step 5 - Process Frames:    58.67s (avg: 0.065s/frame)
  Step 6 - Convert Arrays:    0.00s
  Step 7 - Forward Kinematics: 0.03s
  Step 8 - Save Data:         0.00s
Status: SUCCESS
==================================================

=== SUCCESS LOG - 2025-10-14 20:13:51 ===
Input file: /data/retarget/locomotion/raw/AMASS_SMPLXG/Eyes_Japan_Dataset/kaiwa/greeting-09-certificate-kaiwa_stageii.npz
Output file: ../robot/ik_based/pkl/008577.pkl
Robot type: unitree_g1
Processing time: 73.25 seconds

STEP-BY-STEP TIMING:
  Step 1 - Load SMPLX:        2.46s
  Step 2 - Align FPS:         13.93s
  Step 3 - Init Retarget:     0.25s
  Step 4 - Init Visualization: 0.00s
  Step 5 - Process Frames:    56.24s (avg: 0.062s/frame)
  Step 6 - Convert Arrays:    0.00s
  Step 7 - Forward Kinematics: 0.22s
  Step 8 - Save Data:         0.01s
Status: SUCCESS
==================================================

=== SUCCESS LOG - 2025-10-14 20:13:52 ===
Input file: /data/retarget/locomotion/raw/AMASS_SMPLXG/Eyes_Japan_Dataset/kaiwa/greeting-08-shakehands-kaiwa_stageii.npz
Output file: ../robot/ik_based/pkl/008576.pkl
Robot type: unitree_g1
Processing time: 74.88 seconds

STEP-BY-STEP TIMING:
  Step 1 - Load SMPLX:        2.58s
  Step 2 - Align FPS:         12.56s
  Step 3 - Init Retarget:     0.39s
  Step 4 - Init Visualization: 0.00s
  Step 5 - Process Frames:    59.28s (avg: 0.066s/frame)
  Step 6 - Convert Arrays:    0.00s
  Step 7 - Forward Kinematics: 0.03s
  Step 8 - Save Data:         0.00s
Status: SUCCESS
==================================================

=== SUCCESS LOG - 2025-10-14 20:15:13 ===
Input file: /data/retarget/locomotion/raw/AMASS_SMPLXG/Eyes_Japan_Dataset/kaiwa/jump-02-leap-kaiwa_stageii.npz
Output file: ../robot/ik_based/pkl/008579.pkl
Robot type: unitree_g1
Processing time: 81.32 seconds

STEP-BY-STEP TIMING:
  Step 1 - Load SMPLX:        2.58s
  Step 2 - Align FPS:         11.32s
  Step 3 - Init Retarget:     0.68s
  Step 4 - Init Visualization: 0.00s
  Step 5 - Process Frames:    66.40s (avg: 0.074s/frame)
  Step 6 - Convert Arrays:    0.00s
  Step 7 - Forward Kinematics: 0.16s
  Step 8 - Save Data:         0.01s
Status: SUCCESS
==================================================

=== SUCCESS LOG - 2025-10-14 20:15:16 ===
Input file: /data/retarget/locomotion/raw/AMASS_SMPLXG/Eyes_Japan_Dataset/kaiwa/jump-03-vertical-kaiwa_stageii.npz
Output file: ../robot/ik_based/pkl/008580.pkl
Robot type: unitree_g1
Processing time: 83.20 seconds

STEP-BY-STEP TIMING:
  Step 1 - Load SMPLX:        2.51s
  Step 2 - Align FPS:         12.13s
  Step 3 - Init Retarget:     0.24s
  Step 4 - Init Visualization: 0.00s
  Step 5 - Process Frames:    68.26s (avg: 0.076s/frame)
  Step 6 - Convert Arrays:    0.00s
  Step 7 - Forward Kinematics: 0.03s
  Step 8 - Save Data:         0.00s
Status: SUCCESS
==================================================

=== SUCCESS LOG - 2025-10-14 20:16:43 ===
Input file: /data/retarget/locomotion/raw/AMASS_SMPLXG/Eyes_Japan_Dataset/kaiwa/jump-04-horizontal-kaiwa_stageii.npz
Output file: ../robot/ik_based/pkl/008581.pkl
Robot type: unitree_g1
Processing time: 89.64 seconds

STEP-BY-STEP TIMING:
  Step 1 - Load SMPLX:        8.15s
  Step 2 - Align FPS:         11.83s
  Step 3 - Init Retarget:     1.61s
  Step 4 - Init Visualization: 0.00s
  Step 5 - Process Frames:    67.75s (avg: 0.075s/frame)
  Step 6 - Convert Arrays:    0.00s
  Step 7 - Forward Kinematics: 0.15s
  Step 8 - Save Data:         0.01s
Status: SUCCESS
==================================================

=== SUCCESS LOG - 2025-10-14 20:16:46 ===
Input file: /data/retarget/locomotion/raw/AMASS_SMPLXG/Eyes_Japan_Dataset/kaiwa/jump-11-warmup-kaiwa_stageii.npz
Output file: ../robot/ik_based/pkl/008582.pkl
Robot type: unitree_g1
Processing time: 89.34 seconds

STEP-BY-STEP TIMING:
  Step 1 - Load SMPLX:        6.39s
  Step 2 - Align FPS:         12.08s
  Step 3 - Init Retarget:     0.23s
  Step 4 - Init Visualization: 0.00s
  Step 5 - Process Frames:    70.55s (avg: 0.078s/frame)
  Step 6 - Convert Arrays:    0.01s
  Step 7 - Forward Kinematics: 0.03s
  Step 8 - Save Data:         0.00s
Status: SUCCESS
==================================================

=== SUCCESS LOG - 2025-10-14 20:17:54 ===
Input file: /data/retarget/locomotion/raw/AMASS_SMPLXG/Eyes_Japan_Dataset/kaiwa/pain-01-headache-kaiwa_stageii.npz
Output file: ../robot/ik_based/pkl/008584.pkl
Robot type: unitree_g1
Processing time: 70.12 seconds

STEP-BY-STEP TIMING:
  Step 1 - Load SMPLX:        3.20s
  Step 2 - Align FPS:         5.63s
  Step 3 - Init Retarget:     0.37s
  Step 4 - Init Visualization: 0.00s
  Step 5 - Process Frames:    60.49s (avg: 0.067s/frame)
  Step 6 - Convert Arrays:    0.00s
  Step 7 - Forward Kinematics: 0.21s
  Step 8 - Save Data:         0.01s
Status: SUCCESS
==================================================

=== SUCCESS LOG - 2025-10-14 20:18:07 ===
Input file: /data/retarget/locomotion/raw/AMASS_SMPLXG/Eyes_Japan_Dataset/kaiwa/pain-03-toothache-kaiwa_stageii.npz
Output file: ../robot/ik_based/pkl/008585.pkl
Robot type: unitree_g1
Processing time: 80.70 seconds

STEP-BY-STEP TIMING:
  Step 1 - Load SMPLX:        6.74s
  Step 2 - Align FPS:         9.48s
  Step 3 - Init Retarget:     0.24s
  Step 4 - Init Visualization: 0.00s
  Step 5 - Process Frames:    62.61s (avg: 0.070s/frame)
  Step 6 - Convert Arrays:    0.00s
  Step 7 - Forward Kinematics: 1.60s
  Step 8 - Save Data:         0.00s
Status: SUCCESS
==================================================

=== SUCCESS LOG - 2025-10-14 20:19:32 ===
Input file: /data/retarget/locomotion/raw/AMASS_SMPLXG/Eyes_Japan_Dataset/kaiwa/pain-07-arthritic-kaiwa_stageii.npz
Output file: ../robot/ik_based/pkl/008586.pkl
Robot type: unitree_g1
Processing time: 96.98 seconds

STEP-BY-STEP TIMING:
  Step 1 - Load SMPLX:        3.17s
  Step 2 - Align FPS:         9.61s
  Step 3 - Init Retarget:     0.19s
  Step 4 - Init Visualization: 0.00s
  Step 5 - Process Frames:    83.57s (avg: 0.093s/frame)
  Step 6 - Convert Arrays:    0.00s
  Step 7 - Forward Kinematics: 0.27s
  Step 8 - Save Data:         0.01s
Status: SUCCESS
==================================================

=== SUCCESS LOG - 2025-10-14 20:19:32 ===
Input file: /data/retarget/locomotion/raw/AMASS_SMPLXG/Eyes_Japan_Dataset/kaiwa/pose-01-normal-kaiwa_stageii.npz
Output file: ../robot/ik_based/pkl/008587.pkl
Robot type: unitree_g1
Processing time: 83.60 seconds

STEP-BY-STEP TIMING:
  Step 1 - Load SMPLX:        3.03s
  Step 2 - Align FPS:         9.88s
  Step 3 - Init Retarget:     0.24s
  Step 4 - Init Visualization: 0.00s
  Step 5 - Process Frames:    70.26s (avg: 0.078s/frame)
  Step 6 - Convert Arrays:    0.00s
  Step 7 - Forward Kinematics: 0.14s
  Step 8 - Save Data:         0.00s
Status: SUCCESS
==================================================

=== SUCCESS LOG - 2025-10-14 20:20:59 ===
Input file: /data/retarget/locomotion/raw/AMASS_SMPLXG/Eyes_Japan_Dataset/kaiwa/pose-03-open_leg-kaiwa_stageii.npz
Output file: ../robot/ik_based/pkl/008589.pkl
Robot type: unitree_g1
Processing time: 86.48 seconds

STEP-BY-STEP TIMING:
  Step 1 - Load SMPLX:        2.49s
  Step 2 - Align FPS:         11.18s
  Step 3 - Init Retarget:     1.65s
  Step 4 - Init Visualization: 0.00s
  Step 5 - Process Frames:    70.82s (avg: 0.079s/frame)
  Step 6 - Convert Arrays:    0.00s
  Step 7 - Forward Kinematics: 0.17s
  Step 8 - Save Data:         0.01s
Status: SUCCESS
==================================================

=== SUCCESS LOG - 2025-10-14 20:21:12 ===
Input file: /data/retarget/locomotion/raw/AMASS_SMPLXG/Eyes_Japan_Dataset/kaiwa/pose-04-drank-kaiwa_stageii.npz
Output file: ../robot/ik_based/pkl/008590.pkl
Robot type: unitree_g1
Processing time: 99.07 seconds

STEP-BY-STEP TIMING:
  Step 1 - Load SMPLX:        2.61s
  Step 2 - Align FPS:         12.61s
  Step 3 - Init Retarget:     0.27s
  Step 4 - Init Visualization: 0.00s
  Step 5 - Process Frames:    83.53s (avg: 0.093s/frame)
  Step 6 - Convert Arrays:    0.00s
  Step 7 - Forward Kinematics: 0.02s
  Step 8 - Save Data:         0.00s
Status: SUCCESS
==================================================

=== SUCCESS LOG - 2025-10-14 20:22:24 ===
Input file: /data/retarget/locomotion/raw/AMASS_SMPLXG/Eyes_Japan_Dataset/kaiwa/pose-08-pray_buddhismintone-kaiwa_stageii.npz
Output file: ../robot/ik_based/pkl/008593.pkl
Robot type: unitree_g1
Processing time: 71.47 seconds

STEP-BY-STEP TIMING:
  Step 1 - Load SMPLX:        2.89s
  Step 2 - Align FPS:         8.50s
  Step 3 - Init Retarget:     0.28s
  Step 4 - Init Visualization: 0.00s
  Step 5 - Process Frames:    59.37s (avg: 0.066s/frame)
  Step 6 - Convert Arrays:    0.00s
  Step 7 - Forward Kinematics: 0.26s
  Step 8 - Save Data:         0.01s
Status: SUCCESS
==================================================

=== SUCCESS LOG - 2025-10-14 20:22:27 ===
Input file: /data/retarget/locomotion/raw/AMASS_SMPLXG/Eyes_Japan_Dataset/kaiwa/pose-06-hangon-kaiwa_stageii.npz
Output file: ../robot/ik_based/pkl/008592.pkl
Robot type: unitree_g1
Processing time: 87.28 seconds

STEP-BY-STEP TIMING:
  Step 1 - Load SMPLX:        3.11s
  Step 2 - Align FPS:         8.84s
  Step 3 - Init Retarget:     0.26s
  Step 4 - Init Visualization: 0.00s
  Step 5 - Process Frames:    75.00s (avg: 0.083s/frame)
  Step 6 - Convert Arrays:    0.00s
  Step 7 - Forward Kinematics: 0.02s
  Step 8 - Save Data:         0.00s
Status: SUCCESS
==================================================

=== SUCCESS LOG - 2025-10-14 20:23:35 ===
Input file: /data/retarget/locomotion/raw/AMASS_SMPLXG/Eyes_Japan_Dataset/kaiwa/pose-09-pray_buddhism-kaiwa_stageii.npz
Output file: ../robot/ik_based/pkl/008594.pkl
Robot type: unitree_g1
Processing time: 70.67 seconds

STEP-BY-STEP TIMING:
  Step 1 - Load SMPLX:        3.81s
  Step 2 - Align FPS:         7.00s
  Step 3 - Init Retarget:     0.29s
  Step 4 - Init Visualization: 0.00s
  Step 5 - Process Frames:    59.26s (avg: 0.072s/frame)
  Step 6 - Convert Arrays:    0.00s
  Step 7 - Forward Kinematics: 0.16s
  Step 8 - Save Data:         0.01s
Status: SUCCESS
==================================================

=== SUCCESS LOG - 2025-10-14 20:23:53 ===
Input file: /data/retarget/locomotion/raw/AMASS_SMPLXG/Eyes_Japan_Dataset/kaiwa/pose-10-recall_blackmagic-kaiwa_stageii.npz
Output file: ../robot/ik_based/pkl/008595.pkl
Robot type: unitree_g1
Processing time: 84.99 seconds

STEP-BY-STEP TIMING:
  Step 1 - Load SMPLX:        3.63s
  Step 2 - Align FPS:         9.95s
  Step 3 - Init Retarget:     0.22s
  Step 4 - Init Visualization: 0.00s
  Step 5 - Process Frames:    70.84s (avg: 0.079s/frame)
  Step 6 - Convert Arrays:    0.00s
  Step 7 - Forward Kinematics: 0.18s
  Step 8 - Save Data:         0.01s
Status: SUCCESS
==================================================

=== SUCCESS LOG - 2025-10-14 20:25:20 ===
Input file: /data/retarget/locomotion/raw/AMASS_SMPLXG/Eyes_Japan_Dataset/kaiwa/pose-11-bended_knees-kaiwa_stageii.npz
Output file: ../robot/ik_based/pkl/008596.pkl
Robot type: unitree_g1
Processing time: 104.27 seconds

STEP-BY-STEP TIMING:
  Step 1 - Load SMPLX:        2.76s
  Step 2 - Align FPS:         9.30s
  Step 3 - Init Retarget:     0.22s
  Step 4 - Init Visualization: 0.00s
  Step 5 - Process Frames:    91.63s (avg: 0.102s/frame)
  Step 6 - Convert Arrays:    0.00s
  Step 7 - Forward Kinematics: 0.18s
  Step 8 - Save Data:         0.01s
Status: SUCCESS
==================================================

=== SUCCESS LOG - 2025-10-14 20:25:23 ===
Input file: /data/retarget/locomotion/raw/AMASS_SMPLXG/Eyes_Japan_Dataset/kaiwa/pose-12-body_building-kaiwa_stageii.npz
Output file: ../robot/ik_based/pkl/008597.pkl
Robot type: unitree_g1
Processing time: 89.10 seconds

STEP-BY-STEP TIMING:
  Step 1 - Load SMPLX:        3.09s
  Step 2 - Align FPS:         9.67s
  Step 3 - Init Retarget:     0.22s
  Step 4 - Init Visualization: 0.00s
  Step 5 - Process Frames:    76.07s (avg: 0.085s/frame)
  Step 6 - Convert Arrays:    0.00s
  Step 7 - Forward Kinematics: 0.02s
  Step 8 - Save Data:         0.00s
Status: SUCCESS
==================================================

=== SUCCESS LOG - 2025-10-14 20:26:43 ===
Input file: /data/retarget/locomotion/raw/AMASS_SMPLXG/Eyes_Japan_Dataset/kaiwa/pose-15-look_down-kaiwa_stageii.npz
Output file: ../robot/ik_based/pkl/008600.pkl
Robot type: unitree_g1
Processing time: 81.97 seconds

STEP-BY-STEP TIMING:
  Step 1 - Load SMPLX:        3.53s
  Step 2 - Align FPS:         8.48s
  Step 3 - Init Retarget:     0.53s
  Step 4 - Init Visualization: 0.00s
  Step 5 - Process Frames:    69.10s (avg: 0.077s/frame)
  Step 6 - Convert Arrays:    0.00s
  Step 7 - Forward Kinematics: 0.18s
  Step 8 - Save Data:         0.01s
Status: SUCCESS
==================================================

=== SUCCESS LOG - 2025-10-14 20:26:49 ===
Input file: /data/retarget/locomotion/raw/AMASS_SMPLXG/Eyes_Japan_Dataset/kaiwa/pose-17-one_leg-kaiwa_stageii.npz
Output file: ../robot/ik_based/pkl/008601.pkl
Robot type: unitree_g1
Processing time: 85.21 seconds

STEP-BY-STEP TIMING:
  Step 1 - Load SMPLX:        3.09s
  Step 2 - Align FPS:         11.86s
  Step 3 - Init Retarget:     0.24s
  Step 4 - Init Visualization: 0.00s
  Step 5 - Process Frames:    69.29s (avg: 0.077s/frame)
  Step 6 - Convert Arrays:    0.00s
  Step 7 - Forward Kinematics: 0.21s
  Step 8 - Save Data:         0.02s
Status: SUCCESS
==================================================

=== SUCCESS LOG - 2025-10-14 20:27:57 ===
Input file: /data/retarget/locomotion/raw/AMASS_SMPLXG/Eyes_Japan_Dataset/kaiwa/pose-18-applause-kaiwa_stageii.npz
Output file: ../robot/ik_based/pkl/008602.pkl
Robot type: unitree_g1
Processing time: 74.02 seconds

STEP-BY-STEP TIMING:
  Step 1 - Load SMPLX:        3.00s
  Step 2 - Align FPS:         6.02s
  Step 3 - Init Retarget:     0.27s
  Step 4 - Init Visualization: 0.00s
  Step 5 - Process Frames:    64.34s (avg: 0.071s/frame)
  Step 6 - Convert Arrays:    0.00s
  Step 7 - Forward Kinematics: 0.19s
  Step 8 - Save Data:         0.01s
Status: SUCCESS
==================================================

=== SUCCESS LOG - 2025-10-14 20:27:59 ===
Input file: /data/retarget/locomotion/raw/AMASS_SMPLXG/Eyes_Japan_Dataset/kaiwa/pose-20-zombee-kaiwa_stageii.npz
Output file: ../robot/ik_based/pkl/008603.pkl
Robot type: unitree_g1
Processing time: 68.61 seconds

STEP-BY-STEP TIMING:
  Step 1 - Load SMPLX:        4.46s
  Step 2 - Align FPS:         9.64s
  Step 3 - Init Retarget:     0.28s
  Step 4 - Init Visualization: 0.00s
  Step 5 - Process Frames:    54.14s (avg: 0.060s/frame)
  Step 6 - Convert Arrays:    0.00s
  Step 7 - Forward Kinematics: 0.03s
  Step 8 - Save Data:         0.00s
Status: SUCCESS
==================================================

=== SUCCESS LOG - 2025-10-14 20:29:26 ===
Input file: /data/retarget/locomotion/raw/AMASS_SMPLXG/Eyes_Japan_Dataset/kaiwa/sitdown_standup-09-squat_down-kaiwa_stageii.npz
Output file: ../robot/ik_based/pkl/008605.pkl
Robot type: unitree_g1
Processing time: 87.60 seconds

STEP-BY-STEP TIMING:
  Step 1 - Load SMPLX:        2.37s
  Step 2 - Align FPS:         11.14s
  Step 3 - Init Retarget:     1.95s
  Step 4 - Init Visualization: 0.00s
  Step 5 - Process Frames:    71.71s (avg: 0.080s/frame)
  Step 6 - Convert Arrays:    0.00s
  Step 7 - Forward Kinematics: 0.21s
  Step 8 - Save Data:         0.01s
Status: SUCCESS
==================================================

=== SUCCESS LOG - 2025-10-14 20:29:28 ===
Input file: /data/retarget/locomotion/raw/AMASS_SMPLXG/Eyes_Japan_Dataset/kaiwa/tennis-02-forehand_lob-kaiwa_stageii.npz
Output file: ../robot/ik_based/pkl/008606.pkl
Robot type: unitree_g1
Processing time: 88.03 seconds

STEP-BY-STEP TIMING:
  Step 1 - Load SMPLX:        1.98s
  Step 2 - Align FPS:         12.07s
  Step 3 - Init Retarget:     0.23s
  Step 4 - Init Visualization: 0.00s
  Step 5 - Process Frames:    73.70s (avg: 0.082s/frame)
  Step 6 - Convert Arrays:    0.00s
  Step 7 - Forward Kinematics: 0.02s
  Step 8 - Save Data:         0.00s
Status: SUCCESS
==================================================

=== SUCCESS LOG - 2025-10-14 20:30:50 ===
Input file: /data/retarget/locomotion/raw/AMASS_SMPLXG/Eyes_Japan_Dataset/kaiwa/tennis-18-catch_netball-kaiwa_stageii.npz
Output file: ../robot/ik_based/pkl/008608.pkl
Robot type: unitree_g1
Processing time: 81.97 seconds

STEP-BY-STEP TIMING:
  Step 1 - Load SMPLX:        2.71s
  Step 2 - Align FPS:         12.14s
  Step 3 - Init Retarget:     0.25s
  Step 4 - Init Visualization: 0.00s
  Step 5 - Process Frames:    66.46s (avg: 0.074s/frame)
  Step 6 - Convert Arrays:    0.01s
  Step 7 - Forward Kinematics: 0.23s
  Step 8 - Save Data:         0.01s
Status: SUCCESS
==================================================

=== SUCCESS LOG - 2025-10-14 20:30:52 ===
Input file: /data/retarget/locomotion/raw/AMASS_SMPLXG/Eyes_Japan_Dataset/kaiwa/tennis-06-forehand_smash-kaiwa_stageii.npz
Output file: ../robot/ik_based/pkl/008607.pkl
Robot type: unitree_g1
Processing time: 85.15 seconds

STEP-BY-STEP TIMING:
  Step 1 - Load SMPLX:        3.19s
  Step 2 - Align FPS:         10.57s
  Step 3 - Init Retarget:     0.32s
  Step 4 - Init Visualization: 0.00s
  Step 5 - Process Frames:    71.00s (avg: 0.079s/frame)
  Step 6 - Convert Arrays:    0.00s
  Step 7 - Forward Kinematics: 0.03s
  Step 8 - Save Data:         0.00s
Status: SUCCESS
==================================================

=== SUCCESS LOG - 2025-10-14 20:32:13 ===
Input file: /data/retarget/locomotion/raw/AMASS_SMPLXG/Eyes_Japan_Dataset/kaiwa/throw_toss-12-dart-kaiwa_stageii.npz
Output file: ../robot/ik_based/pkl/008611.pkl
Robot type: unitree_g1
Processing time: 80.52 seconds

STEP-BY-STEP TIMING:
  Step 1 - Load SMPLX:        2.57s
  Step 2 - Align FPS:         12.74s
  Step 3 - Init Retarget:     0.27s
  Step 4 - Init Visualization: 0.00s
  Step 5 - Process Frames:    64.65s (avg: 0.072s/frame)
  Step 6 - Convert Arrays:    0.00s
  Step 7 - Forward Kinematics: 0.14s
  Step 8 - Save Data:         0.00s
Status: SUCCESS
==================================================

=== SUCCESS LOG - 2025-10-14 20:32:19 ===
Input file: /data/retarget/locomotion/raw/AMASS_SMPLXG/Eyes_Japan_Dataset/kaiwa/throw_toss-09-shotput-kaiwa_stageii.npz
Output file: ../robot/ik_based/pkl/008610.pkl
Robot type: unitree_g1
Processing time: 88.12 seconds

STEP-BY-STEP TIMING:
  Step 1 - Load SMPLX:        3.13s
  Step 2 - Align FPS:         10.29s
  Step 3 - Init Retarget:     0.23s
  Step 4 - Init Visualization: 0.00s
  Step 5 - Process Frames:    74.25s (avg: 0.082s/frame)
  Step 6 - Convert Arrays:    0.00s
  Step 7 - Forward Kinematics: 0.09s
  Step 8 - Save Data:         0.01s
Status: SUCCESS
==================================================

=== SUCCESS LOG - 2025-10-14 20:33:43 ===
Input file: /data/retarget/locomotion/raw/AMASS_SMPLXG/Eyes_Japan_Dataset/kaiwa/throw_toss-14-pass_to_right_heavy-kaiwa_stageii.npz
Output file: ../robot/ik_based/pkl/008613.pkl
Robot type: unitree_g1
Processing time: 89.56 seconds

STEP-BY-STEP TIMING:
  Step 1 - Load SMPLX:        2.80s
  Step 2 - Align FPS:         7.62s
  Step 3 - Init Retarget:     0.37s
  Step 4 - Init Visualization: 0.00s
  Step 5 - Process Frames:    78.46s (avg: 0.087s/frame)
  Step 6 - Convert Arrays:    0.00s
  Step 7 - Forward Kinematics: 0.17s
  Step 8 - Save Data:         0.00s
Status: SUCCESS
==================================================

=== SUCCESS LOG - 2025-10-14 20:33:55 ===
Input file: /data/retarget/locomotion/raw/AMASS_SMPLXG/Eyes_Japan_Dataset/kaiwa/throw_toss-17-pass_to_back_light-kaiwa_stageii.npz
Output file: ../robot/ik_based/pkl/008614.pkl
Robot type: unitree_g1
Processing time: 95.26 seconds

STEP-BY-STEP TIMING:
  Step 1 - Load SMPLX:        5.96s
  Step 2 - Align FPS:         9.09s
  Step 3 - Init Retarget:     0.24s
  Step 4 - Init Visualization: 0.00s
  Step 5 - Process Frames:    79.06s (avg: 0.088s/frame)
  Step 6 - Convert Arrays:    0.00s
  Step 7 - Forward Kinematics: 0.04s
  Step 8 - Save Data:         0.07s
Status: SUCCESS
==================================================

=== SUCCESS LOG - 2025-10-14 20:35:22 ===
Input file: /data/retarget/locomotion/raw/AMASS_SMPLXG/Eyes_Japan_Dataset/kaiwa/throw_toss-19-pass_to_front_light-kaiwa_stageii.npz
Output file: ../robot/ik_based/pkl/008616.pkl
Robot type: unitree_g1
Processing time: 85.81 seconds

STEP-BY-STEP TIMING:
  Step 1 - Load SMPLX:        2.74s
  Step 2 - Align FPS:         8.64s
  Step 3 - Init Retarget:     0.22s
  Step 4 - Init Visualization: 0.00s
  Step 5 - Process Frames:    73.76s (avg: 0.082s/frame)
  Step 6 - Convert Arrays:    0.01s
  Step 7 - Forward Kinematics: 0.20s
  Step 8 - Save Data:         0.01s
Status: SUCCESS
==================================================

=== SUCCESS LOG - 2025-10-14 20:35:22 ===
Input file: /data/retarget/locomotion/raw/AMASS_SMPLXG/Eyes_Japan_Dataset/kaiwa/throw_toss-18-pass_to_back_heavy-kaiwa_stageii.npz
Output file: ../robot/ik_based/pkl/008615.pkl
Robot type: unitree_g1
Processing time: 98.57 seconds

STEP-BY-STEP TIMING:
  Step 1 - Load SMPLX:        2.94s
  Step 2 - Align FPS:         9.38s
  Step 3 - Init Retarget:     0.25s
  Step 4 - Init Visualization: 0.00s
  Step 5 - Process Frames:    85.92s (avg: 0.095s/frame)
  Step 6 - Convert Arrays:    0.00s
  Step 7 - Forward Kinematics: 0.03s
  Step 8 - Save Data:         0.00s
Status: SUCCESS
==================================================

=== SUCCESS LOG - 2025-10-14 20:36:45 ===
Input file: /data/retarget/locomotion/raw/AMASS_SMPLXG/Eyes_Japan_Dataset/kaiwa/turn-01-call-kaiwa_stageii.npz
Output file: ../robot/ik_based/pkl/008618.pkl
Robot type: unitree_g1
Processing time: 82.49 seconds

STEP-BY-STEP TIMING:
  Step 1 - Load SMPLX:        2.61s
  Step 2 - Align FPS:         11.22s
  Step 3 - Init Retarget:     1.60s
  Step 4 - Init Visualization: 0.00s
  Step 5 - Process Frames:    66.65s (avg: 0.074s/frame)
  Step 6 - Convert Arrays:    0.00s
  Step 7 - Forward Kinematics: 0.23s
  Step 8 - Save Data:         0.01s
Status: SUCCESS
==================================================

=== SUCCESS LOG - 2025-10-14 20:36:46 ===
Input file: /data/retarget/locomotion/raw/AMASS_SMPLXG/Eyes_Japan_Dataset/kaiwa/turn-02-look_around-kaiwa_stageii.npz
Output file: ../robot/ik_based/pkl/008619.pkl
Robot type: unitree_g1
Processing time: 83.33 seconds

STEP-BY-STEP TIMING:
  Step 1 - Load SMPLX:        2.44s
  Step 2 - Align FPS:         12.50s
  Step 3 - Init Retarget:     0.26s
  Step 4 - Init Visualization: 0.00s
  Step 5 - Process Frames:    68.07s (avg: 0.076s/frame)
  Step 6 - Convert Arrays:    0.00s
  Step 7 - Forward Kinematics: 0.02s
  Step 8 - Save Data:         0.00s
Status: SUCCESS
==================================================

=== SUCCESS LOG - 2025-10-14 20:38:08 ===
Input file: /data/retarget/locomotion/raw/AMASS_SMPLXG/Eyes_Japan_Dataset/kaiwa/turn-05-turn-kaiwa_stageii.npz
Output file: ../robot/ik_based/pkl/008621.pkl
Robot type: unitree_g1
Processing time: 82.98 seconds

STEP-BY-STEP TIMING:
  Step 1 - Load SMPLX:        2.60s
  Step 2 - Align FPS:         11.15s
  Step 3 - Init Retarget:     1.44s
  Step 4 - Init Visualization: 0.00s
  Step 5 - Process Frames:    67.51s (avg: 0.075s/frame)
  Step 6 - Convert Arrays:    0.00s
  Step 7 - Forward Kinematics: 0.15s
  Step 8 - Save Data:         0.00s
Status: SUCCESS
==================================================

=== SUCCESS LOG - 2025-10-14 20:38:37 ===
Input file: /data/retarget/locomotion/raw/AMASS_SMPLXG/Eyes_Japan_Dataset/kaiwa/walk-16-push_by_hand-kaiwa_stageii.npz
Output file: ../robot/ik_based/pkl/008622.pkl
Robot type: unitree_g1
Processing time: 110.28 seconds

STEP-BY-STEP TIMING:
  Step 1 - Load SMPLX:        2.24s
  Step 2 - Align FPS:         11.66s
  Step 3 - Init Retarget:     0.22s
  Step 4 - Init Visualization: 0.00s
  Step 5 - Process Frames:    95.86s (avg: 0.107s/frame)
  Step 6 - Convert Arrays:    0.01s
  Step 7 - Forward Kinematics: 0.14s
  Step 8 - Save Data:         0.01s
Status: SUCCESS
==================================================

=== SUCCESS LOG - 2025-10-14 20:39:21 ===
Input file: /data/retarget/locomotion/raw/AMASS_SMPLXG/Eyes_Japan_Dataset/kaiwa/walk-24-listless-kaiwa_stageii.npz
Output file: ../robot/ik_based/pkl/008623.pkl
Robot type: unitree_g1
Processing time: 72.30 seconds

STEP-BY-STEP TIMING:
  Step 1 - Load SMPLX:        3.20s
  Step 2 - Align FPS:         9.36s
  Step 3 - Init Retarget:     0.21s
  Step 4 - Init Visualization: 0.00s
  Step 5 - Process Frames:    59.30s (avg: 0.067s/frame)
  Step 6 - Convert Arrays:    0.00s
  Step 7 - Forward Kinematics: 0.12s
  Step 8 - Save Data:         0.00s
Status: SUCCESS
==================================================

=== SUCCESS LOG - 2025-10-14 20:39:45 ===
Input file: /data/retarget/locomotion/raw/AMASS_SMPLXG/Eyes_Japan_Dataset/kaiwa/walk-26-exhausted-kaiwa_stageii.npz
Output file: ../robot/ik_based/pkl/008624.pkl
Robot type: unitree_g1
Processing time: 67.45 seconds

STEP-BY-STEP TIMING:
  Step 1 - Load SMPLX:        3.16s
  Step 2 - Align FPS:         8.96s
  Step 3 - Init Retarget:     0.24s
  Step 4 - Init Visualization: 0.00s
  Step 5 - Process Frames:    54.80s (avg: 0.062s/frame)
  Step 6 - Convert Arrays:    0.00s
  Step 7 - Forward Kinematics: 0.15s
  Step 8 - Save Data:         0.00s
Status: SUCCESS
==================================================

=== SUCCESS LOG - 2025-10-14 20:40:36 ===
Input file: /data/retarget/locomotion/raw/AMASS_SMPLXG/Eyes_Japan_Dataset/kaiwa/walk-29-look_down-kaiwa_stageii.npz
Output file: ../robot/ik_based/pkl/008626.pkl
Robot type: unitree_g1
Processing time: 74.09 seconds

STEP-BY-STEP TIMING:
  Step 1 - Load SMPLX:        3.81s
  Step 2 - Align FPS:         11.24s
  Step 3 - Init Retarget:     0.22s
  Step 4 - Init Visualization: 0.00s
  Step 5 - Process Frames:    58.43s (avg: 0.066s/frame)
  Step 6 - Convert Arrays:    0.00s
  Step 7 - Forward Kinematics: 0.16s
  Step 8 - Save Data:         0.01s
Status: SUCCESS
==================================================

=== SUCCESS LOG - 2025-10-14 20:41:00 ===
Input file: /data/retarget/locomotion/raw/AMASS_SMPLXG/Eyes_Japan_Dataset/kanno/accident-01-dodge-kanno_stageii.npz
Output file: ../robot/ik_based/pkl/008627.pkl
Robot type: unitree_g1
Processing time: 74.68 seconds

STEP-BY-STEP TIMING:
  Step 1 - Load SMPLX:        3.20s
  Step 2 - Align FPS:         9.60s
  Step 3 - Init Retarget:     0.24s
  Step 4 - Init Visualization: 0.00s
  Step 5 - Process Frames:    61.36s (avg: 0.069s/frame)
  Step 6 - Convert Arrays:    0.00s
  Step 7 - Forward Kinematics: 0.14s
  Step 8 - Save Data:         0.01s
Status: SUCCESS
==================================================

=== SUCCESS LOG - 2025-10-14 20:41:56 ===
Input file: /data/retarget/locomotion/raw/AMASS_SMPLXG/Eyes_Japan_Dataset/kanno/accident-02-dodge_fast-kanno_stageii.npz
Output file: ../robot/ik_based/pkl/008628.pkl
Robot type: unitree_g1
Processing time: 79.53 seconds

STEP-BY-STEP TIMING:
  Step 1 - Load SMPLX:        2.81s
  Step 2 - Align FPS:         10.11s
  Step 3 - Init Retarget:     0.32s
  Step 4 - Init Visualization: 0.00s
  Step 5 - Process Frames:    66.01s (avg: 0.074s/frame)
  Step 6 - Convert Arrays:    0.00s
  Step 7 - Forward Kinematics: 0.13s
  Step 8 - Save Data:         0.01s
Status: SUCCESS
==================================================

=== SUCCESS LOG - 2025-10-14 20:42:11 ===
Input file: /data/retarget/locomotion/raw/AMASS_SMPLXG/Eyes_Japan_Dataset/kanno/accident-03-damage_head-kanno_stageii.npz
Output file: ../robot/ik_based/pkl/008629.pkl
Robot type: unitree_g1
Processing time: 69.70 seconds

STEP-BY-STEP TIMING:
  Step 1 - Load SMPLX:        2.94s
  Step 2 - Align FPS:         9.30s
  Step 3 - Init Retarget:     0.22s
  Step 4 - Init Visualization: 0.00s
  Step 5 - Process Frames:    56.98s (avg: 0.064s/frame)
  Step 6 - Convert Arrays:    0.00s
  Step 7 - Forward Kinematics: 0.13s
  Step 8 - Save Data:         0.00s
Status: SUCCESS
==================================================

=== SUCCESS LOG - 2025-10-14 20:43:12 ===
Input file: /data/retarget/locomotion/raw/AMASS_SMPLXG/Eyes_Japan_Dataset/kanno/accident-05-damage_right_arm-kanno_stageii.npz
Output file: ../robot/ik_based/pkl/008631.pkl
Robot type: unitree_g1
Processing time: 75.66 seconds

STEP-BY-STEP TIMING:
  Step 1 - Load SMPLX:        2.97s
  Step 2 - Align FPS:         9.67s
  Step 3 - Init Retarget:     0.30s
  Step 4 - Init Visualization: 0.00s
  Step 5 - Process Frames:    62.54s (avg: 0.069s/frame)
  Step 6 - Convert Arrays:    0.03s
  Step 7 - Forward Kinematics: 0.08s
  Step 8 - Save Data:         0.00s
Status: SUCCESS
==================================================

=== SUCCESS LOG - 2025-10-14 20:43:21 ===
Input file: /data/retarget/locomotion/raw/AMASS_SMPLXG/Eyes_Japan_Dataset/kanno/accident-06-damage_left_leg-kanno_stageii.npz
Output file: ../robot/ik_based/pkl/008632.pkl
Robot type: unitree_g1
Processing time: 69.39 seconds

STEP-BY-STEP TIMING:
  Step 1 - Load SMPLX:        2.89s
  Step 2 - Align FPS:         8.36s
  Step 3 - Init Retarget:     0.21s
  Step 4 - Init Visualization: 0.00s
  Step 5 - Process Frames:    57.39s (avg: 0.064s/frame)
  Step 6 - Convert Arrays:    0.00s
  Step 7 - Forward Kinematics: 0.02s
  Step 8 - Save Data:         0.00s
Status: SUCCESS
==================================================

=== SUCCESS LOG - 2025-10-14 20:44:33 ===
Input file: /data/retarget/locomotion/raw/AMASS_SMPLXG/Eyes_Japan_Dataset/kanno/accident-10-spasm-kanno_stageii.npz
Output file: ../robot/ik_based/pkl/008635.pkl
Robot type: unitree_g1
Processing time: 72.19 seconds

STEP-BY-STEP TIMING:
  Step 1 - Load SMPLX:        5.67s
  Step 2 - Align FPS:         7.83s
  Step 3 - Init Retarget:     0.21s
  Step 4 - Init Visualization: 0.00s
  Step 5 - Process Frames:    58.21s (avg: 0.065s/frame)
  Step 6 - Convert Arrays:    0.00s
  Step 7 - Forward Kinematics: 0.15s
  Step 8 - Save Data:         0.00s
Status: SUCCESS
==================================================

=== SUCCESS LOG - 2025-10-14 20:44:33 ===
Input file: /data/retarget/locomotion/raw/AMASS_SMPLXG/Eyes_Japan_Dataset/kanno/accident-08-damage_rightfoot-kanno_stageii.npz
Output file: ../robot/ik_based/pkl/008634.pkl
Robot type: unitree_g1
Processing time: 80.30 seconds

STEP-BY-STEP TIMING:
  Step 1 - Load SMPLX:        6.93s
  Step 2 - Align FPS:         6.03s
  Step 3 - Init Retarget:     0.37s
  Step 4 - Init Visualization: 0.00s
  Step 5 - Process Frames:    66.76s (avg: 0.075s/frame)
  Step 6 - Convert Arrays:    0.00s
  Step 7 - Forward Kinematics: 0.17s
  Step 8 - Save Data:         0.00s
Status: SUCCESS
==================================================

=== SUCCESS LOG - 2025-10-14 20:45:54 ===
Input file: /data/retarget/locomotion/raw/AMASS_SMPLXG/Eyes_Japan_Dataset/kanno/accident-12-twist_foot-kanno_stageii.npz
Output file: ../robot/ik_based/pkl/008637.pkl
Robot type: unitree_g1
Processing time: 79.58 seconds

STEP-BY-STEP TIMING:
  Step 1 - Load SMPLX:        4.75s
  Step 2 - Align FPS:         12.05s
  Step 3 - Init Retarget:     1.50s
  Step 4 - Init Visualization: 0.00s
  Step 5 - Process Frames:    60.83s (avg: 0.068s/frame)
  Step 6 - Convert Arrays:    0.00s
  Step 7 - Forward Kinematics: 0.26s
  Step 8 - Save Data:         0.01s
Status: SUCCESS
==================================================

=== SUCCESS LOG - 2025-10-14 20:45:56 ===
Input file: /data/retarget/locomotion/raw/AMASS_SMPLXG/Eyes_Japan_Dataset/kanno/accident-11-fall_down-kanno_stageii.npz
Output file: ../robot/ik_based/pkl/008636.pkl
Robot type: unitree_g1
Processing time: 81.91 seconds

STEP-BY-STEP TIMING:
  Step 1 - Load SMPLX:        5.06s
  Step 2 - Align FPS:         13.49s
  Step 3 - Init Retarget:     0.21s
  Step 4 - Init Visualization: 0.00s
  Step 5 - Process Frames:    63.06s (avg: 0.071s/frame)
  Step 6 - Convert Arrays:    0.00s
  Step 7 - Forward Kinematics: 0.04s
  Step 8 - Save Data:         0.00s
Status: SUCCESS
==================================================

=== SUCCESS LOG - 2025-10-14 20:47:09 ===
Input file: /data/retarget/locomotion/raw/AMASS_SMPLXG/Eyes_Japan_Dataset/kanno/accident-14-dodge_turn_down-kanno_stageii.npz
Output file: ../robot/ik_based/pkl/008639.pkl
Robot type: unitree_g1
Processing time: 74.43 seconds

STEP-BY-STEP TIMING:
  Step 1 - Load SMPLX:        3.50s
  Step 2 - Align FPS:         11.90s
  Step 3 - Init Retarget:     0.83s
  Step 4 - Init Visualization: 0.00s
  Step 5 - Process Frames:    57.70s (avg: 0.065s/frame)
  Step 6 - Convert Arrays:    0.00s
  Step 7 - Forward Kinematics: 0.16s
  Step 8 - Save Data:         0.01s
Status: SUCCESS
==================================================

=== SUCCESS LOG - 2025-10-14 20:47:13 ===
Input file: /data/retarget/locomotion/raw/AMASS_SMPLXG/Eyes_Japan_Dataset/kanno/accident-15-knock_head_2-kanno_stageii.npz
Output file: ../robot/ik_based/pkl/008640.pkl
Robot type: unitree_g1
Processing time: 76.37 seconds

STEP-BY-STEP TIMING:
  Step 1 - Load SMPLX:        2.18s
  Step 2 - Align FPS:         11.83s
  Step 3 - Init Retarget:     0.27s
  Step 4 - Init Visualization: 0.00s
  Step 5 - Process Frames:    62.03s (avg: 0.070s/frame)
  Step 6 - Convert Arrays:    0.00s
  Step 7 - Forward Kinematics: 0.02s
  Step 8 - Save Data:         0.00s
Status: SUCCESS
==================================================

=== SUCCESS LOG - 2025-10-14 20:48:42 ===
Input file: /data/retarget/locomotion/raw/AMASS_SMPLXG/Eyes_Japan_Dataset/kanno/gesture_etc-41-mosh-kanno_stageii.npz
Output file: ../robot/ik_based/pkl/008643.pkl
Robot type: unitree_g1
Processing time: 87.84 seconds

STEP-BY-STEP TIMING:
  Step 1 - Load SMPLX:        4.77s
  Step 2 - Align FPS:         10.55s
  Step 3 - Init Retarget:     0.20s
  Step 4 - Init Visualization: 0.00s
  Step 5 - Process Frames:    71.87s (avg: 0.071s/frame)
  Step 6 - Convert Arrays:    0.01s
  Step 7 - Forward Kinematics: 0.15s
  Step 8 - Save Data:         0.01s
Status: SUCCESS
==================================================

=== SUCCESS LOG - 2025-10-14 20:48:59 ===
Input file: /data/retarget/locomotion/raw/AMASS_SMPLXG/Eyes_Japan_Dataset/kanno/gesture_etc-40-head_banging-kanno_stageii.npz
Output file: ../robot/ik_based/pkl/008642.pkl
Robot type: unitree_g1
Processing time: 109.55 seconds

STEP-BY-STEP TIMING:
  Step 1 - Load SMPLX:        3.81s
  Step 2 - Align FPS:         6.56s
  Step 3 - Init Retarget:     0.21s
  Step 4 - Init Visualization: 0.00s
  Step 5 - Process Frames:    98.61s (avg: 0.100s/frame)
  Step 6 - Convert Arrays:    0.00s
  Step 7 - Forward Kinematics: 0.15s
  Step 8 - Save Data:         0.01s
Status: SUCCESS
==================================================

=== SUCCESS LOG - 2025-10-14 20:50:06 ===
Input file: /data/retarget/locomotion/raw/AMASS_SMPLXG/Eyes_Japan_Dataset/kanno/gesture_etc-43-brush_teeth-kanno_stageii.npz
Output file: ../robot/ik_based/pkl/008644.pkl
Robot type: unitree_g1
Processing time: 83.63 seconds

STEP-BY-STEP TIMING:
  Step 1 - Load SMPLX:        2.99s
  Step 2 - Align FPS:         8.98s
  Step 3 - Init Retarget:     0.27s
  Step 4 - Init Visualization: 0.00s
  Step 5 - Process Frames:    71.01s (avg: 0.071s/frame)
  Step 6 - Convert Arrays:    0.00s
  Step 7 - Forward Kinematics: 0.21s
  Step 8 - Save Data:         0.01s
Status: SUCCESS
==================================================

=== SUCCESS LOG - 2025-10-14 20:50:17 ===
Input file: /data/retarget/locomotion/raw/AMASS_SMPLXG/Eyes_Japan_Dataset/kanno/gesture_etc-45-feel_dizzy_-kanno_stageii.npz
Output file: ../robot/ik_based/pkl/008645.pkl
Robot type: unitree_g1
Processing time: 76.99 seconds

STEP-BY-STEP TIMING:
  Step 1 - Load SMPLX:        4.12s
  Step 2 - Align FPS:         8.94s
  Step 3 - Init Retarget:     0.38s
  Step 4 - Init Visualization: 0.00s
  Step 5 - Process Frames:    62.70s (avg: 0.063s/frame)
  Step 6 - Convert Arrays:    0.00s
  Step 7 - Forward Kinematics: 0.55s
  Step 8 - Save Data:         0.00s
Status: SUCCESS
==================================================

=== SUCCESS LOG - 2025-10-14 20:51:27 ===
Input file: /data/retarget/locomotion/raw/AMASS_SMPLXG/Eyes_Japan_Dataset/kanno/gesture_etc-50-syuriken-kanno_stageii.npz
Output file: ../robot/ik_based/pkl/008647.pkl
Robot type: unitree_g1
Processing time: 79.85 seconds

STEP-BY-STEP TIMING:
  Step 1 - Load SMPLX:        3.08s
  Step 2 - Align FPS:         9.93s
  Step 3 - Init Retarget:     0.30s
  Step 4 - Init Visualization: 0.00s
  Step 5 - Process Frames:    66.11s (avg: 0.067s/frame)
  Step 6 - Convert Arrays:    0.00s
  Step 7 - Forward Kinematics: 0.21s
  Step 8 - Save Data:         0.01s
Status: SUCCESS
==================================================

=== SUCCESS LOG - 2025-10-14 20:51:35 ===
Input file: /data/retarget/locomotion/raw/AMASS_SMPLXG/Eyes_Japan_Dataset/kanno/greeting-01-hello-kanno_stageii.npz
Output file: ../robot/ik_based/pkl/008648.pkl
Robot type: unitree_g1
Processing time: 77.47 seconds

STEP-BY-STEP TIMING:
  Step 1 - Load SMPLX:        5.20s
  Step 2 - Align FPS:         10.67s
  Step 3 - Init Retarget:     0.24s
  Step 4 - Init Visualization: 0.00s
  Step 5 - Process Frames:    60.88s (avg: 0.061s/frame)
  Step 6 - Convert Arrays:    0.00s
  Step 7 - Forward Kinematics: 0.24s
  Step 8 - Save Data:         0.01s
Status: SUCCESS
==================================================

=== SUCCESS LOG - 2025-10-14 20:52:49 ===
Input file: /data/retarget/locomotion/raw/AMASS_SMPLXG/Eyes_Japan_Dataset/kanno/greeting-02-bye-kanno_stageii.npz
Output file: ../robot/ik_based/pkl/008649.pkl
Robot type: unitree_g1
Processing time: 81.30 seconds

STEP-BY-STEP TIMING:
  Step 1 - Load SMPLX:        3.05s
  Step 2 - Align FPS:         8.67s
  Step 3 - Init Retarget:     0.20s
  Step 4 - Init Visualization: 0.00s
  Step 5 - Process Frames:    69.00s (avg: 0.068s/frame)
  Step 6 - Convert Arrays:    0.01s
  Step 7 - Forward Kinematics: 0.22s
  Step 8 - Save Data:         0.01s
Status: SUCCESS
==================================================

=== SUCCESS LOG - 2025-10-14 20:52:59 ===
Input file: /data/retarget/locomotion/raw/AMASS_SMPLXG/Eyes_Japan_Dataset/kanno/greeting-03-election-kanno_stageii.npz
Output file: ../robot/ik_based/pkl/008650.pkl
Robot type: unitree_g1
Processing time: 83.01 seconds

STEP-BY-STEP TIMING:
  Step 1 - Load SMPLX:        5.43s
  Step 2 - Align FPS:         10.82s
  Step 3 - Init Retarget:     0.28s
  Step 4 - Init Visualization: 0.00s
  Step 5 - Process Frames:    66.02s (avg: 0.065s/frame)
  Step 6 - Convert Arrays:    0.00s
  Step 7 - Forward Kinematics: 0.32s
  Step 8 - Save Data:         0.00s
Status: SUCCESS
==================================================

=== SUCCESS LOG - 2025-10-14 20:54:03 ===
Input file: /data/retarget/locomotion/raw/AMASS_SMPLXG/Eyes_Japan_Dataset/kanno/greeting-07-bow-kanno_stageii.npz
Output file: ../robot/ik_based/pkl/008652.pkl
Robot type: unitree_g1
Processing time: 73.21 seconds

STEP-BY-STEP TIMING:
  Step 1 - Load SMPLX:        3.67s
  Step 2 - Align FPS:         8.98s
  Step 3 - Init Retarget:     0.21s
  Step 4 - Init Visualization: 0.00s
  Step 5 - Process Frames:    59.99s (avg: 0.060s/frame)
  Step 6 - Convert Arrays:    0.00s
  Step 7 - Forward Kinematics: 0.18s
  Step 8 - Save Data:         0.01s
Status: SUCCESS
==================================================

=== SUCCESS LOG - 2025-10-14 20:54:16 ===
Input file: /data/retarget/locomotion/raw/AMASS_SMPLXG/Eyes_Japan_Dataset/kanno/greeting-08-shakehands-kanno_stageii.npz
Output file: ../robot/ik_based/pkl/008653.pkl
Robot type: unitree_g1
Processing time: 76.37 seconds

STEP-BY-STEP TIMING:
  Step 1 - Load SMPLX:        5.66s
  Step 2 - Align FPS:         11.05s
  Step 3 - Init Retarget:     0.25s
  Step 4 - Init Visualization: 0.00s
  Step 5 - Process Frames:    57.63s (avg: 0.056s/frame)
  Step 6 - Convert Arrays:    0.00s
  Step 7 - Forward Kinematics: 1.71s
  Step 8 - Save Data:         0.00s
Status: SUCCESS
==================================================

=== SUCCESS LOG - 2025-10-14 20:55:14 ===
Input file: /data/retarget/locomotion/raw/AMASS_SMPLXG/Eyes_Japan_Dataset/kanno/greeting-09-certificate-kanno_stageii.npz
Output file: ../robot/ik_based/pkl/008654.pkl
Robot type: unitree_g1
Processing time: 70.29 seconds

STEP-BY-STEP TIMING:
  Step 1 - Load SMPLX:        3.41s
  Step 2 - Align FPS:         9.74s
  Step 3 - Init Retarget:     0.18s
  Step 4 - Init Visualization: 0.00s
  Step 5 - Process Frames:    56.68s (avg: 0.056s/frame)
  Step 6 - Convert Arrays:    0.00s
  Step 7 - Forward Kinematics: 0.14s
  Step 8 - Save Data:         0.01s
Status: SUCCESS
==================================================

=== SUCCESS LOG - 2025-10-14 20:56:27 ===
Input file: /data/retarget/locomotion/raw/AMASS_SMPLXG/Eyes_Japan_Dataset/kanno/jump-07-rope_double-kanno_stageii.npz
Output file: ../robot/ik_based/pkl/008655.pkl
Robot type: unitree_g1
Processing time: 129.93 seconds

STEP-BY-STEP TIMING:
  Step 1 - Load SMPLX:        3.04s
  Step 2 - Align FPS:         11.14s
  Step 3 - Init Retarget:     0.23s
  Step 4 - Init Visualization: 0.00s
  Step 5 - Process Frames:    115.14s (avg: 0.117s/frame)
  Step 6 - Convert Arrays:    0.00s
  Step 7 - Forward Kinematics: 0.19s
  Step 8 - Save Data:         0.01s
Status: SUCCESS
==================================================

=== SUCCESS LOG - 2025-10-14 20:56:49 ===
Input file: /data/retarget/locomotion/raw/AMASS_SMPLXG/Eyes_Japan_Dataset/kanno/jump-08-rope_backward-kanno_stageii.npz
Output file: ../robot/ik_based/pkl/008656.pkl
Robot type: unitree_g1
Processing time: 94.79 seconds

STEP-BY-STEP TIMING:
  Step 1 - Load SMPLX:        2.78s
  Step 2 - Align FPS:         10.04s
  Step 3 - Init Retarget:     0.21s
  Step 4 - Init Visualization: 0.00s
  Step 5 - Process Frames:    81.39s (avg: 0.083s/frame)
  Step 6 - Convert Arrays:    0.00s
  Step 7 - Forward Kinematics: 0.20s
  Step 8 - Save Data:         0.01s
Status: SUCCESS
==================================================

=== SUCCESS LOG - 2025-10-14 20:57:45 ===
Input file: /data/retarget/locomotion/raw/AMASS_SMPLXG/Eyes_Japan_Dataset/kanno/jump-10-rope_long-kanno_stageii.npz
Output file: ../robot/ik_based/pkl/008658.pkl
Robot type: unitree_g1
Processing time: 76.75 seconds

STEP-BY-STEP TIMING:
  Step 1 - Load SMPLX:        2.83s
  Step 2 - Align FPS:         10.68s
  Step 3 - Init Retarget:     0.25s
  Step 4 - Init Visualization: 0.00s
  Step 5 - Process Frames:    62.63s (avg: 0.061s/frame)
  Step 6 - Convert Arrays:    0.00s
  Step 7 - Forward Kinematics: 0.20s
  Step 8 - Save Data:         0.01s
Status: SUCCESS
==================================================

=== SUCCESS LOG - 2025-10-14 20:58:47 ===
Input file: /data/retarget/locomotion/raw/AMASS_SMPLXG/Eyes_Japan_Dataset/kanno/jump-12-boxer_step-kanno_stageii.npz
Output file: ../robot/ik_based/pkl/008659.pkl
Robot type: unitree_g1
Processing time: 117.15 seconds

STEP-BY-STEP TIMING:
  Step 1 - Load SMPLX:        9.31s
  Step 2 - Align FPS:         10.82s
  Step 3 - Init Retarget:     0.30s
  Step 4 - Init Visualization: 0.00s
  Step 5 - Process Frames:    96.42s (avg: 0.097s/frame)
  Step 6 - Convert Arrays:    0.00s
  Step 7 - Forward Kinematics: 0.17s
  Step 8 - Save Data:         0.00s
Status: SUCCESS
==================================================

=== ERROR LOG - 2025-10-14 20:58:49 ===
Input file: /data/retarget/locomotion/raw/AMASS_SMPLXG/Eyes_Japan_Dataset/kanno/male_stagei.npz
Output file: ../robot/ik_based/pkl/008661.pkl
Robot type: unitree_g1
Processing time: 1.62 seconds
Error message: 'pose_body is not a file in the archive'
Error type: KeyError
==================================================

=== SUCCESS LOG - 2025-10-14 20:59:36 ===
Input file: /data/retarget/locomotion/raw/AMASS_SMPLXG/Eyes_Japan_Dataset/kanno/jump-13-matrix-kanno_stageii.npz
Output file: ../robot/ik_based/pkl/008660.pkl
Robot type: unitree_g1
Processing time: 110.38 seconds

STEP-BY-STEP TIMING:
  Step 1 - Load SMPLX:        3.94s
  Step 2 - Align FPS:         10.56s
  Step 3 - Init Retarget:     0.24s
  Step 4 - Init Visualization: 0.00s
  Step 5 - Process Frames:    95.19s (avg: 0.095s/frame)
  Step 6 - Convert Arrays:    0.00s
  Step 7 - Forward Kinematics: 0.25s
  Step 8 - Save Data:         0.01s
Status: SUCCESS
==================================================

=== SUCCESS LOG - 2025-10-14 20:59:50 ===
Input file: /data/retarget/locomotion/raw/AMASS_SMPLXG/Eyes_Japan_Dataset/kanno/pose-05-cross_leg-kanno_stageii.npz
Output file: ../robot/ik_based/pkl/008662.pkl
Robot type: unitree_g1
Processing time: 60.41 seconds

STEP-BY-STEP TIMING:
  Step 1 - Load SMPLX:        2.83s
  Step 2 - Align FPS:         7.49s
  Step 3 - Init Retarget:     0.23s
  Step 4 - Init Visualization: 0.00s
  Step 5 - Process Frames:    49.59s (avg: 0.056s/frame)
  Step 6 - Convert Arrays:    0.00s
  Step 7 - Forward Kinematics: 0.13s
  Step 8 - Save Data:         0.01s
Status: SUCCESS
==================================================

=== SUCCESS LOG - 2025-10-14 21:00:42 ===
Input file: /data/retarget/locomotion/raw/AMASS_SMPLXG/Eyes_Japan_Dataset/kanno/pose-08-pray_buddhismintone-kanno_stageii.npz
Output file: ../robot/ik_based/pkl/008664.pkl
Robot type: unitree_g1
Processing time: 65.60 seconds

STEP-BY-STEP TIMING:
  Step 1 - Load SMPLX:        2.92s
  Step 2 - Align FPS:         8.61s
  Step 3 - Init Retarget:     0.23s
  Step 4 - Init Visualization: 0.00s
  Step 5 - Process Frames:    53.49s (avg: 0.060s/frame)
  Step 6 - Convert Arrays:    0.00s
  Step 7 - Forward Kinematics: 0.18s
  Step 8 - Save Data:         0.01s
Status: SUCCESS
==================================================

=== SUCCESS LOG - 2025-10-14 21:00:50 ===
Input file: /data/retarget/locomotion/raw/AMASS_SMPLXG/Eyes_Japan_Dataset/kanno/pose-09-pray_buddhism-kanno_stageii.npz
Output file: ../robot/ik_based/pkl/008665.pkl
Robot type: unitree_g1
Processing time: 60.14 seconds

STEP-BY-STEP TIMING:
  Step 1 - Load SMPLX:        2.99s
  Step 2 - Align FPS:         9.13s
  Step 3 - Init Retarget:     0.21s
  Step 4 - Init Visualization: 0.00s
  Step 5 - Process Frames:    47.38s (avg: 0.053s/frame)
  Step 6 - Convert Arrays:    0.00s
  Step 7 - Forward Kinematics: 0.26s
  Step 8 - Save Data:         0.00s
Status: SUCCESS
==================================================

=== SUCCESS LOG - 2025-10-14 21:01:59 ===
Input file: /data/retarget/locomotion/raw/AMASS_SMPLXG/Eyes_Japan_Dataset/kanno/pose-12-body_building-kanno_stageii.npz
Output file: ../robot/ik_based/pkl/008667.pkl
Robot type: unitree_g1
Processing time: 67.77 seconds

STEP-BY-STEP TIMING:
  Step 1 - Load SMPLX:        5.60s
  Step 2 - Align FPS:         7.82s
  Step 3 - Init Retarget:     0.21s
  Step 4 - Init Visualization: 0.00s
  Step 5 - Process Frames:    53.74s (avg: 0.060s/frame)
  Step 6 - Convert Arrays:    0.00s
  Step 7 - Forward Kinematics: 0.26s
  Step 8 - Save Data:         0.01s
Status: SUCCESS
==================================================

[...]
Error type: OutOfMemoryError
==================================================

=== SUCCESS LOG - 2025-10-15 05:19:19 ===
Input file: /data/retarget/locomotion/raw/AMASS_SMPLXG/GRAB/s9/torusmedium_inspect_1_stageii.npz
Output file: ../robot/ik_based/pkl/010314.pkl
Robot type: unitree_g1
Processing time: 43.06 seconds

STEP-BY-STEP TIMING:
  Step 1 - Load SMPLX:        11.13s
  Step 2 - Align FPS:         4.78s
  Step 3 - Init Retarget:     1.11s
  Step 4 - Init Visualization: 0.00s
  Step 5 - Process Frames:    25.28s (avg: 0.156s/frame)
  Step 6 - Convert Arrays:    0.00s
  Step 7 - Forward Kinematics: 0.06s
  Step 8 - Save Data:         0.00s
Status: SUCCESS
==================================================

=== SUCCESS LOG - 2025-10-15 05:20:40 ===
Input file: /data/retarget/locomotion/raw/AMASS_SMPLXG/GRAB/s9/torussmall_pass_1_stageii.npz
Output file: ../robot/ik_based/pkl/010317.pkl
Robot type: unitree_g1
Processing time: 80.14 seconds

STEP-BY-STEP TIMING:
  Step 1 - Load SMPLX:        50.46s
  Step 2 - Align FPS:         3.22s
  Step 3 - Init Retarget:     0.61s
  Step 4 - Init Visualization: 0.00s
  Step 5 - Process Frames:    25.42s (avg: 0.183s/frame)
  Step 6 - Convert Arrays:    0.00s
  Step 7 - Forward Kinematics: 0.03s
  Step 8 - Save Data:         0.12s
Status: SUCCESS
==================================================

=== SUCCESS LOG - 2025-10-15 05:20:54 ===
Input file: /data/retarget/locomotion/raw/AMASS_SMPLXG/GRAB/s9/torussmall_inspect_1_stageii.npz
Output file: ../robot/ik_based/pkl/010316.pkl
Robot type: unitree_g1
Processing time: 108.68 seconds

STEP-BY-STEP TIMING:
  Step 1 - Load SMPLX:        66.58s
  Step 2 - Align FPS:         6.95s
  Step 3 - Init Retarget:     0.78s
  Step 4 - Init Visualization: 0.03s
  Step 5 - Process Frames:    33.38s (avg: 0.223s/frame)
  Step 6 - Convert Arrays:    0.00s
  Step 7 - Forward Kinematics: 0.25s
  Step 8 - Save Data:         0.08s
Status: SUCCESS
==================================================

=== SUCCESS LOG - 2025-10-15 05:22:36 ===
Input file: /data/retarget/locomotion/raw/AMASS_SMPLXG/GRAB/s9/watch_pass_1_stageii.npz
Output file: ../robot/ik_based/pkl/010319.pkl
Robot type: unitree_g1
Processing time: 100.35 seconds

STEP-BY-STEP TIMING:
  Step 1 - Load SMPLX:        59.69s
  Step 2 - Align FPS:         7.00s
  Step 3 - Init Retarget:     0.83s
  Step 4 - Init Visualization: 0.00s
  Step 5 - Process Frames:    32.48s (avg: 0.118s/frame)
  Step 6 - Convert Arrays:    0.00s
  Step 7 - Forward Kinematics: 0.17s
  Step 8 - Save Data:         0.00s
Status: SUCCESS
==================================================

=== ERROR LOG - 2025-10-15 05:23:21 ===
Input file: /data/retarget/locomotion/raw/AMASS_SMPLXG/GRAB/s9/torussmall_pick_all_stageii.npz
Output file: ../robot/ik_based/pkl/010318.pkl
Robot type: unitree_g1
Processing time: 159.46 seconds

STEP-BY-STEP TIMING (FAILED):
  Load Smplx: 89.23s
  Align Fps: 11.54s
  Init Retarget: 0.28s
  Init Visualization: 0.00s
  Process Frames: 58.15s (avg: 0.093s/frame)
  Convert Arrays: 0.00s
  Forward Kinematics: 0.09s
Error message: CUDA out of memory. Tried to allocate 2.00 MiB. GPU 0 has a total capacity of 23.58 GiB of which 73.00 MiB is free. Process 106491 has 328.00 MiB memory in use. Process 195084 has 364.00 MiB memory in use. Process 381781 has 328.00 MiB memory in use. Process 651230 has 336.00 MiB memory in use. Process 651323 has 336.00 MiB memory in use. Process 651495 has 336.00 MiB memory in use. Including non-PyTorch memory, this process has 336.00 MiB memory in use. Process 652122 has 336.00 MiB memory in use. Process 652552 has 336.00 MiB memory in use. Process 758984 has 326.00 MiB memory in use. Process 759061 has 326.00 MiB memory in use. Process 759140 has 326.00 MiB memory in use. Process 759277 has 326.00 MiB memory in use. Process 759587 has 328.00 MiB memory in use. Process 759754 has 326.00 MiB memory in use. Process 760292 has 326.00 MiB memory in use. Process 760574 has 328.00 MiB memory in use. Process 760908 has 326.00 MiB memory in use. Process 761223 has 328.00 MiB memory in use. Process 761507 has 326.00 MiB memory in use. Process 761784 has 328.00 MiB memory in use. Process 762065 has 326.00 MiB memory in use. Process 762398 has 326.00 MiB memory in use. Process 762712 has 328.00 MiB memory in use. Process 763207 has 326.00 MiB memory in use. Process 763626 has 326.00 MiB memory in use. Process 763813 has 326.00 MiB memory in use. Process 764099 has 60.00 MiB memory in use. Process 764277 has 326.00 MiB memory in use. Process 764470 has 326.00 MiB memory in use. Process 764800 has 326.00 MiB memory in use. Process 765270 has 326.00 MiB memory in use. Process 765495 has 326.00 MiB memory in use. Process 765996 has 326.00 MiB memory in use. Process 766580 has 328.00 MiB memory in use. Process 766668 has 326.00 MiB memory in use. Process 767492 has 326.00 MiB memory in use. Process 767720 has 326.00 MiB memory in use. Process 767797 has 328.00 MiB memory in use. Process 768541 has 326.00 MiB memory in use. Process 769125 has 326.00 MiB memory in use. Process 768850 has 326.00 MiB memory in use. Process 769686 has 326.00 MiB memory in use. Process 769459 has 326.00 MiB memory in use. Process 769827 has 326.00 MiB memory in use. Process 770524 has 326.00 MiB memory in use. Process 770888 has 326.00 MiB memory in use. Process 770316 has 326.00 MiB memory in use. Process 771275 has 326.00 MiB memory in use. Process 771105 has 326.00 MiB memory in use. Process 771771 has 326.00 MiB memory in use. Process 771619 has 326.00 MiB memory in use. Process 772148 has 326.00 MiB memory in use. Process 772899 has 326.00 MiB memory in use. Process 772664 has 326.00 MiB memory in use. Process 773176 has 326.00 MiB memory in use. Process 773279 has 326.00 MiB memory in use. Process 773623 has 326.00 MiB memory in use. Process 774056 has 326.00 MiB memory in use. Process 774461 has 326.00 MiB memory in use. Process 774726 has 328.00 MiB memory in use. Process 774904 has 326.00 MiB memory in use. Process 775026 has 326.00 MiB memory in use. Process 775459 has 326.00 MiB memory in use. Process 775737 has 326.00 MiB memory in use. Process 775847 has 326.00 MiB memory in use. Process 776237 has 326.00 MiB memory in use. Process 776606 has 328.00 MiB memory in use. Process 776978 has 326.00 MiB memory in use. Process 776886 has 326.00 MiB memory in use. Process 777350 has 326.00 MiB memory in use. Process 777531 has 326.00 MiB memory in use. Process 879266 has 326.00 MiB memory in use. Of the allocated memory 18.00 MiB is allocated by PyTorch, and 4.00 MiB is reserved by PyTorch but unallocated. If reserved but unallocated memory is large try setting PYTORCH_CUDA_ALLOC_CONF=expandable_segments:True to avoid fragmentation.  See documentation for Memory Management  (https://pytorch.org/docs/stable/notes/cuda.html#environment-variables)
Error type: OutOfMemoryError
==================================================

=== SUCCESS LOG - 2025-10-15 05:23:58 ===
Input file: /data/retarget/locomotion/raw/AMASS_SMPLXG/GRAB/s9/watch_set_2_stageii.npz
Output file: ../robot/ik_based/pkl/010321.pkl
Robot type: unitree_g1
Processing time: 81.01 seconds

STEP-BY-STEP TIMING:
  Step 1 - Load SMPLX:        43.86s
  Step 2 - Align FPS:         10.79s
  Step 3 - Init Retarget:     0.35s
  Step 4 - Init Visualization: 0.00s
  Step 5 - Process Frames:    25.94s (avg: 0.093s/frame)
  Step 6 - Convert Arrays:    0.00s
  Step 7 - Forward Kinematics: 0.03s
  Step 8 - Save Data:         0.00s
Status: SUCCESS
==================================================

=== SUCCESS LOG - 2025-10-15 05:24:54 ===
Input file: /data/retarget/locomotion/raw/AMASS_SMPLXG/GRAB/s9/waterbottle_drink_1_stageii.npz
Output file: ../robot/ik_based/pkl/010322.pkl
Robot type: unitree_g1
Processing time: 91.82 seconds

STEP-BY-STEP TIMING:
  Step 1 - Load SMPLX:        45.96s
  Step 2 - Align FPS:         7.11s
  Step 3 - Init Retarget:     0.86s
  Step 4 - Init Visualization: 0.00s
  Step 5 - Process Frames:    37.67s (avg: 0.145s/frame)
  Step 6 - Convert Arrays:    0.00s
  Step 7 - Forward Kinematics: 0.10s
  Step 8 - Save Data:         0.04s
Status: SUCCESS
==================================================

=== SUCCESS LOG - 2025-10-15 05:25:13 ===
Input file: /data/retarget/locomotion/raw/AMASS_SMPLXG/GRAB/s9/waterbottle_open_1_stageii.npz
Output file: ../robot/ik_based/pkl/010323.pkl
Robot type: unitree_g1
Processing time: 74.45 seconds

STEP-BY-STEP TIMING:
  Step 1 - Load SMPLX:        40.99s
  Step 2 - Align FPS:         9.67s
  Step 3 - Init Retarget:     1.00s
  Step 4 - Init Visualization: 0.00s
  Step 5 - Process Frames:    22.65s (avg: 0.119s/frame)
  Step 6 - Convert Arrays:    0.00s
  Step 7 - Forward Kinematics: 0.04s
  Step 8 - Save Data:         0.00s
Status: SUCCESS
==================================================

=== SUCCESS LOG - 2025-10-15 05:26:11 ===
Input file: /data/retarget/locomotion/raw/AMASS_SMPLXG/GRAB/s9/waterbottle_pass_1_stageii.npz
Output file: ../robot/ik_based/pkl/010324.pkl
Robot type: unitree_g1
Processing time: 75.28 seconds

STEP-BY-STEP TIMING:
  Step 1 - Load SMPLX:        56.24s
  Step 2 - Align FPS:         3.30s
  Step 3 - Init Retarget:     1.15s
  Step 4 - Init Visualization: 0.00s
  Step 5 - Process Frames:    14.50s (avg: 0.088s/frame)
  Step 6 - Convert Arrays:    0.00s
  Step 7 - Forward Kinematics: 0.03s
  Step 8 - Save Data:         0.00s
Status: SUCCESS
==================================================

=== ERROR LOG - 2025-10-15 05:28:00 ===
Input file: /data/retarget/locomotion/raw/AMASS_SMPLXG/GRAB/s9/waterbottle_pick_all_stageii.npz
Output file: ../robot/ik_based/pkl/010325.pkl
Robot type: unitree_g1
Processing time: 166.63 seconds

STEP-BY-STEP TIMING (FAILED):
  Load Smplx: 87.72s
  Align Fps: 15.29s
  Init Retarget: 0.93s
  Init Visualization: 0.00s
  Process Frames: 62.48s (avg: 0.122s/frame)
  Convert Arrays: 0.00s
  Forward Kinematics: 0.11s
Error message: CUDA out of memory. Tried to allocate 2.00 MiB. GPU 0 has a total capacity of 23.58 GiB of which 73.00 MiB is free. Process 106491 has 328.00 MiB memory in use. Process 195084 has 364.00 MiB memory in use. Process 381781 has 328.00 MiB memory in use. Process 651230 has 336.00 MiB memory in use. Process 651323 has 336.00 MiB memory in use. Process 651495 has 336.00 MiB memory in use. Including non-PyTorch memory, this process has 336.00 MiB memory in use. Process 652122 has 336.00 MiB memory in use. Process 652552 has 336.00 MiB memory in use. Process 758984 has 326.00 MiB memory in use. Process 759061 has 326.00 MiB memory in use. Process 759140 has 326.00 MiB memory in use. Process 759277 has 326.00 MiB memory in use. Process 759587 has 328.00 MiB memory in use. Process 759754 has 326.00 MiB memory in use. Process 760292 has 326.00 MiB memory in use. Process 760574 has 328.00 MiB memory in use. Process 760908 has 326.00 MiB memory in use. Process 761223 has 328.00 MiB memory in use. Process 761507 has 326.00 MiB memory in use. Process 761784 has 328.00 MiB memory in use. Process 762065 has 326.00 MiB memory in use. Process 762398 has 326.00 MiB memory in use. Process 762712 has 328.00 MiB memory in use. Process 763207 has 326.00 MiB memory in use. Process 763626 has 326.00 MiB memory in use. Process 763813 has 326.00 MiB memory in use. Process 764099 has 60.00 MiB memory in use. Process 764277 has 326.00 MiB memory in use. Process 764470 has 326.00 MiB memory in use. Process 764800 has 326.00 MiB memory in use. Process 765270 has 326.00 MiB memory in use. Process 765495 has 326.00 MiB memory in use. Process 765996 has 326.00 MiB memory in use. Process 766580 has 328.00 MiB memory in use. Process 766668 has 326.00 MiB memory in use. Process 767492 has 326.00 MiB memory in use. Process 767720 has 326.00 MiB memory in use. Process 767797 has 328.00 MiB memory in use. Process 768541 has 326.00 MiB memory in use. Process 769125 has 326.00 MiB memory in use. Process 768850 has 326.00 MiB memory in use. Process 769686 has 326.00 MiB memory in use. Process 769459 has 326.00 MiB memory in use. Process 769827 has 326.00 MiB memory in use. Process 770524 has 326.00 MiB memory in use. Process 770888 has 326.00 MiB memory in use. Process 770316 has 326.00 MiB memory in use. Process 771275 has 326.00 MiB memory in use. Process 771105 has 326.00 MiB memory in use. Process 771771 has 326.00 MiB memory in use. Process 771619 has 326.00 MiB memory in use. Process 772148 has 326.00 MiB memory in use. Process 772899 has 326.00 MiB memory in use. Process 772664 has 326.00 MiB memory in use. Process 773176 has 326.00 MiB memory in use. Process 773279 has 326.00 MiB memory in use. Process 773623 has 326.00 MiB memory in use. Process 774056 has 326.00 MiB memory in use. Process 774461 has 326.00 MiB memory in use. Process 774726 has 328.00 MiB memory in use. Process 774904 has 326.00 MiB memory in use. Process 775026 has 326.00 MiB memory in use. Process 775459 has 326.00 MiB memory in use. Process 775737 has 326.00 MiB memory in use. Process 775847 has 326.00 MiB memory in use. Process 776237 has 326.00 MiB memory in use. Process 776606 has 328.00 MiB memory in use. Process 776978 has 326.00 MiB memory in use. Process 776886 has 326.00 MiB memory in use. Process 777350 has 326.00 MiB memory in use. Process 777531 has 326.00 MiB memory in use. Process 879266 has 326.00 MiB memory in use. Of the allocated memory 17.71 MiB is allocated by PyTorch, and 4.29 MiB is reserved by PyTorch but unallocated. If reserved but unallocated memory is large try setting PYTORCH_CUDA_ALLOC_CONF=expandable_segments:True to avoid fragmentation.  See documentation for Memory Management  (https://pytorch.org/docs/stable/notes/cuda.html#environment-variables)
Error type: OutOfMemoryError
==================================================

=== SUCCESS LOG - 2025-10-15 05:28:04 ===
Input file: /data/retarget/locomotion/raw/AMASS_SMPLXG/GRAB/s9/waterbottle_pour_1_stageii.npz
Output file: ../robot/ik_based/pkl/010326.pkl
Robot type: unitree_g1
Processing time: 113.40 seconds

STEP-BY-STEP TIMING:
  Step 1 - Load SMPLX:        73.72s
  Step 2 - Align FPS:         10.49s
  Step 3 - Init Retarget:     0.57s
  Step 4 - Init Visualization: 0.00s
  Step 5 - Process Frames:    28.41s (avg: 0.122s/frame)
  Step 6 - Convert Arrays:    0.02s
  Step 7 - Forward Kinematics: 0.08s
  Step 8 - Save Data:         0.00s
Status: SUCCESS
==================================================

=== SUCCESS LOG - 2025-10-15 05:29:33 ===
Input file: /data/retarget/locomotion/raw/AMASS_SMPLXG/GRAB/s9/wineglass_drink_1_stageii.npz
Output file: ../robot/ik_based/pkl/010328.pkl
Robot type: unitree_g1
Processing time: 91.20 seconds

STEP-BY-STEP TIMING:
  Step 1 - Load SMPLX:        33.25s
  Step 2 - Align FPS:         6.34s
  Step 3 - Init Retarget:     1.14s
  Step 4 - Init Visualization: 0.00s
  Step 5 - Process Frames:    49.84s (avg: 0.210s/frame)
  Step 6 - Convert Arrays:    0.00s
  Step 7 - Forward Kinematics: 0.19s
  Step 8 - Save Data:         0.00s
Status: SUCCESS
==================================================

=== SUCCESS LOG - 2025-10-15 05:29:50 ===
Input file: /data/retarget/locomotion/raw/AMASS_SMPLXG/GRAB/s9/wineglass_drink_2_stageii.npz
Output file: ../robot/ik_based/pkl/010329.pkl
Robot type: unitree_g1
Processing time: 104.87 seconds

STEP-BY-STEP TIMING:
  Step 1 - Load SMPLX:        36.76s
  Step 2 - Align FPS:         10.62s
  Step 3 - Init Retarget:     1.75s
  Step 4 - Init Visualization: 0.00s
  Step 5 - Process Frames:    55.66s (avg: 0.197s/frame)
  Step 6 - Convert Arrays:    0.00s
  Step 7 - Forward Kinematics: 0.06s
  Step 8 - Save Data:         0.00s
Status: SUCCESS
==================================================

=== SUCCESS LOG - 2025-10-15 05:31:02 ===
Input file: /data/retarget/locomotion/raw/AMASS_SMPLXG/GRAB/s9/wineglass_pass_1_stageii.npz
Output file: ../robot/ik_based/pkl/010330.pkl
Robot type: unitree_g1
Processing time: 87.32 seconds

STEP-BY-STEP TIMING:
  Step 1 - Load SMPLX:        50.44s
  Step 2 - Align FPS:         3.71s
  Step 3 - Init Retarget:     1.05s
  Step 4 - Init Visualization: 0.00s
  Step 5 - Process Frames:    31.50s (avg: 0.157s/frame)
  Step 6 - Convert Arrays:    0.01s
  Step 7 - Forward Kinematics: 0.24s
  Step 8 - Save Data:         0.12s
Status: SUCCESS
==================================================

=== SUCCESS LOG - 2025-10-15 05:31:19 ===
Input file: /data/retarget/locomotion/raw/AMASS_SMPLXG/GRAB/s9/wineglass_toast_1_Retake_stageii.npz
Output file: ../robot/ik_based/pkl/010331.pkl
Robot type: unitree_g1
Processing time: 89.39 seconds

STEP-BY-STEP TIMING:
  Step 1 - Load SMPLX:        45.48s
  Step 2 - Align FPS:         10.73s
  Step 3 - Init Retarget:     1.12s
  Step 4 - Init Visualization: 0.00s
  Step 5 - Process Frames:    31.97s (avg: 0.162s/frame)
  Step 6 - Convert Arrays:    0.00s
  Step 7 - Forward Kinematics: 0.03s
  Step 8 - Save Data:         0.03s
Status: SUCCESS
==================================================
