
=== SKIPPED (ALREADY EXISTS) - 2025-10-14 22:21:48 ===
File index: 008000
Input file: /data/retarget/locomotion/raw/AMASS_SMPLXG/EKUT/234/WSTR02_stageii.npz
Output file: ../robot/ik_based/pkl/008000.pkl
Status: SKIPPED (ALREADY EXISTS) - NO PROCESSING PERFORMED
==================================================

=== SKIPPED (ALREADY EXISTS) - 2025-10-14 22:21:48 ===
File index: 008001
Input file: /data/retarget/locomotion/raw/AMASS_SMPLXG/EKUT/234/WSTR03_bIIAHex_stageii.npz
Output file: ../robot/ik_based/pkl/008001.pkl
Status: SKIPPED (ALREADY EXISTS) - NO PROCESSING PERFORMED
==================================================

=== SKIPPED (ALREADY EXISTS) - 2025-10-14 22:21:48 ===
File index: 008002
Input file: /data/retarget/locomotion/raw/AMASS_SMPLXG/EKUT/234/WSTR03_stageii.npz
Output file: ../robot/ik_based/pkl/008002.pkl
Status: SKIPPED (ALREADY EXISTS) - NO PROCESSING PERFORMED
==================================================

=== SKIPPED (ALREADY EXISTS) - 2025-10-14 22:21:48 ===
File index: 008003
Input file: /data/retarget/locomotion/raw/AMASS_SMPLXG/EKUT/234/WSTR04_stageii.npz
Output file: ../robot/ik_based/pkl/008003.pkl
Status: SKIPPED (ALREADY EXISTS) - NO PROCESSING PERFORMED
==================================================

=== SKIPPED (ALREADY EXISTS) - 2025-10-14 22:21:48 ===
File index: 008004
Input file: /data/retarget/locomotion/raw/AMASS_SMPLXG/EKUT/234/WSTR05_J0Yfi7a_stageii.npz
Output file: ../robot/ik_based/pkl/008004.pkl
Status: SKIPPED (ALREADY EXISTS) - NO PROCESSING PERFORMED
==================================================

=== SKIPPED (ALREADY EXISTS) - 2025-10-14 22:21:48 ===
File index: 008005
Input file: /data/retarget/locomotion/raw/AMASS_SMPLXG/EKUT/234/WSTR05_stageii.npz
Output file: ../robot/ik_based/pkl/008005.pkl
Status: SKIPPED (ALREADY EXISTS) - NO PROCESSING PERFORMED
==================================================

=== SKIPPED (ALREADY EXISTS) - 2025-10-14 22:21:48 ===
File index: 008006
Input file: /data/retarget/locomotion/raw/AMASS_SMPLXG/EKUT/234/WSUF01_stageii.npz
Output file: ../robot/ik_based/pkl/008006.pkl
Status: SKIPPED (ALREADY EXISTS) - NO PROCESSING PERFORMED
==================================================

=== SKIPPED (ALREADY EXISTS) - 2025-10-14 22:21:48 ===
File index: 008007
Input file: /data/retarget/locomotion/raw/AMASS_SMPLXG/EKUT/234/WSUF02_stageii.npz
Output file: ../robot/ik_based/pkl/008007.pkl
Status: SKIPPED (ALREADY EXISTS) - NO PROCESSING PERFORMED
==================================================

=== SKIPPED (ALREADY EXISTS) - 2025-10-14 22:21:48 ===
File index: 008008
Input file: /data/retarget/locomotion/raw/AMASS_SMPLXG/EKUT/234/WSUF03_stageii.npz
Output file: ../robot/ik_based/pkl/008008.pkl
Status: SKIPPED (ALREADY EXISTS) - NO PROCESSING PERFORMED
==================================================

=== SKIPPED (ALREADY EXISTS) - 2025-10-14 22:21:48 ===
File index: 008009
Input file: /data/retarget/locomotion/raw/AMASS_SMPLXG/EKUT/234/WSUF04_stageii.npz
Output file: ../robot/ik_based/pkl/008009.pkl
Status: SKIPPED (ALREADY EXISTS) - NO PROCESSING PERFORMED
==================================================

=== SKIPPED (ALREADY EXISTS) - 2025-10-14 22:21:48 ===
File index: 008010
Input file: /data/retarget/locomotion/raw/AMASS_SMPLXG/EKUT/234/WSUF05_stageii.npz
Output file: ../robot/ik_based/pkl/008010.pkl
Status: SKIPPED (ALREADY EXISTS) - NO PROCESSING PERFORMED
==================================================

=== ERROR LOG - 2025-10-14 22:21:51 ===
Input file: /data/retarget/locomotion/raw/AMASS_SMPLXG/EKUT/234/male_stagei.npz
Output file: ../robot/ik_based/pkl/008011.pkl
Robot type: unitree_g1
Processing time: 2.44 seconds
Error message: 'pose_body is not a file in the archive'
Error type: KeyError
==================================================

=== FILE FAILURE - 2025-10-14 22:21:51 ===
File index: 008011
File number: 12/9757
Input file: /data/retarget/locomotion/raw/AMASS_SMPLXG/EKUT/234/male_stagei.npz
Output file: ../robot/ik_based/pkl/008011.pkl
Processing time: 2.44 seconds
Total file time: 2.71 seconds
Status: FAILED
==================================================

=== SKIPPED (ALREADY EXISTS) - 2025-10-14 22:21:51 ===
File index: 008012
Input file: /data/retarget/locomotion/raw/AMASS_SMPLXG/EKUT/265/BEAM01_stageii.npz
Output file: ../robot/ik_based/pkl/008012.pkl
Status: SKIPPED (ALREADY EXISTS) - NO PROCESSING PERFORMED
==================================================

=== SKIPPED (ALREADY EXISTS) - 2025-10-14 22:21:51 ===
File index: 008013
Input file: /data/retarget/locomotion/raw/AMASS_SMPLXG/EKUT/265/BEAM02_stageii.npz
Output file: ../robot/ik_based/pkl/008013.pkl
Status: SKIPPED (ALREADY EXISTS) - NO PROCESSING PERFORMED
==================================================

=== SKIPPED (ALREADY EXISTS) - 2025-10-14 22:21:51 ===
File index: 008014
Input file: /data/retarget/locomotion/raw/AMASS_SMPLXG/EKUT/265/BEAM03_stageii.npz
Output file: ../robot/ik_based/pkl/008014.pkl
Status: SKIPPED (ALREADY EXISTS) - NO PROCESSING PERFORMED
==================================================

=== SKIPPED (ALREADY EXISTS) - 2025-10-14 22:21:51 ===
File index: 008015
Input file: /data/retarget/locomotion/raw/AMASS_SMPLXG/EKUT/265/BEAM04_stageii.npz
Output file: ../robot/ik_based/pkl/008015.pkl
Status: SKIPPED (ALREADY EXISTS) - NO PROCESSING PERFORMED
==================================================

=== SKIPPED (ALREADY EXISTS) - 2025-10-14 22:21:51 ===
File index: 008016
Input file: /data/retarget/locomotion/raw/AMASS_SMPLXG/EKUT/265/BEAM05_stageii.npz
Output file: ../robot/ik_based/pkl/008016.pkl
Status: SKIPPED (ALREADY EXISTS) - NO PROCESSING PERFORMED
==================================================

=== SKIPPED (ALREADY EXISTS) - 2025-10-14 22:21:51 ===
File index: 008017
Input file: /data/retarget/locomotion/raw/AMASS_SMPLXG/EKUT/265/BEAMN01_stageii.npz
Output file: ../robot/ik_based/pkl/008017.pkl
Status: SKIPPED (ALREADY EXISTS) - NO PROCESSING PERFORMED
==================================================

=== SKIPPED (ALREADY EXISTS) - 2025-10-14 22:21:51 ===
File index: 008018
Input file: /data/retarget/locomotion/raw/AMASS_SMPLXG/EKUT/265/BEAMN02_stageii.npz
Output file: ../robot/ik_based/pkl/008018.pkl
Status: SKIPPED (ALREADY EXISTS) - NO PROCESSING PERFORMED
==================================================

=== SKIPPED (ALREADY EXISTS) - 2025-10-14 22:21:51 ===
File index: 008019
Input file: /data/retarget/locomotion/raw/AMASS_SMPLXG/EKUT/265/BEAMN03_stageii.npz
Output file: ../robot/ik_based/pkl/008019.pkl
Status: SKIPPED (ALREADY EXISTS) - NO PROCESSING PERFORMED
==================================================

=== SKIPPED (ALREADY EXISTS) - 2025-10-14 22:21:51 ===
File index: 008020
Input file: /data/retarget/locomotion/raw/AMASS_SMPLXG/EKUT/265/BEAMN04_stageii.npz
Output file: ../robot/ik_based/pkl/008020.pkl
Status: SKIPPED (ALREADY EXISTS) - NO PROCESSING PERFORMED
==================================================

=== SKIPPED (ALREADY EXISTS) - 2025-10-14 22:21:51 ===
File index: 008021
Input file: /data/retarget/locomotion/raw/AMASS_SMPLXG/EKUT/265/BEAMN05_stageii.npz
Output file: ../robot/ik_based/pkl/008021.pkl
Status: SKIPPED (ALREADY EXISTS) - NO PROCESSING PERFORMED
==================================================

=== SKIPPED (ALREADY EXISTS) - 2025-10-14 22:21:51 ===
File index: 008022
Input file: /data/retarget/locomotion/raw/AMASS_SMPLXG/EKUT/265/MTR01_stageii.npz
Output file: ../robot/ik_based/pkl/008022.pkl
Status: SKIPPED (ALREADY EXISTS) - NO PROCESSING PERFORMED
==================================================

=== SKIPPED (ALREADY EXISTS) - 2025-10-14 22:21:51 ===
File index: 008023
Input file: /data/retarget/locomotion/raw/AMASS_SMPLXG/EKUT/265/MTR02_stageii.npz
Output file: ../robot/ik_based/pkl/008023.pkl
Status: SKIPPED (ALREADY EXISTS) - NO PROCESSING PERFORMED
==================================================

=== ERROR LOG - 2025-10-14 22:21:55 ===
Input file: /data/retarget/locomotion/raw/AMASS_SMPLXG/EKUT/265/MTR03_stageii.npz
Output file: ../robot/ik_based/pkl/008024.pkl
Robot type: unitree_g1
Processing time: 3.87 seconds

STEP-BY-STEP TIMING (FAILED):
  Load Smplx: 3.86s
Error message: need at least one array to stack
Error type: ValueError
==================================================

=== FILE FAILURE - 2025-10-14 22:21:55 ===
File index: 008024
File number: 25/9757
Input file: /data/retarget/locomotion/raw/AMASS_SMPLXG/EKUT/265/MTR03_stageii.npz
Output file: ../robot/ik_based/pkl/008024.pkl
Processing time: 3.87 seconds
Total file time: 4.02 seconds
Status: FAILED
==================================================

=== SKIPPED (ALREADY EXISTS) - 2025-10-14 22:21:55 ===
File index: 008025
Input file: /data/retarget/locomotion/raw/AMASS_SMPLXG/EKUT/265/MTR04_stageii.npz
Output file: ../robot/ik_based/pkl/008025.pkl
Status: SKIPPED (ALREADY EXISTS) - NO PROCESSING PERFORMED
==================================================

=== SKIPPED (ALREADY EXISTS) - 2025-10-14 22:21:55 ===
File index: 008026
Input file: /data/retarget/locomotion/raw/AMASS_SMPLXG/EKUT/265/MTR05_stageii.npz
Output file: ../robot/ik_based/pkl/008026.pkl
Status: SKIPPED (ALREADY EXISTS) - NO PROCESSING PERFORMED
==================================================

=== SKIPPED (ALREADY EXISTS) - 2025-10-14 22:21:55 ===
File index: 008027
Input file: /data/retarget/locomotion/raw/AMASS_SMPLXG/EKUT/265/SLP101_stageii.npz
Output file: ../robot/ik_based/pkl/008027.pkl
Status: SKIPPED (ALREADY EXISTS) - NO PROCESSING PERFORMED
==================================================

=== SKIPPED (ALREADY EXISTS) - 2025-10-14 22:21:55 ===
File index: 008028
Input file: /data/retarget/locomotion/raw/AMASS_SMPLXG/EKUT/265/SLP102_stageii.npz
Output file: ../robot/ik_based/pkl/008028.pkl
Status: SKIPPED (ALREADY EXISTS) - NO PROCESSING PERFORMED
==================================================

=== SKIPPED (ALREADY EXISTS) - 2025-10-14 22:21:55 ===
File index: 008029
Input file: /data/retarget/locomotion/raw/AMASS_SMPLXG/EKUT/265/SLP103_stageii.npz
Output file: ../robot/ik_based/pkl/008029.pkl
Status: SKIPPED (ALREADY EXISTS) - NO PROCESSING PERFORMED
==================================================

=== SKIPPED (ALREADY EXISTS) - 2025-10-14 22:21:55 ===
File index: 008030
Input file: /data/retarget/locomotion/raw/AMASS_SMPLXG/EKUT/265/SLP104_stageii.npz
Output file: ../robot/ik_based/pkl/008030.pkl
Status: SKIPPED (ALREADY EXISTS) - NO PROCESSING PERFORMED
==================================================

=== SKIPPED (ALREADY EXISTS) - 2025-10-14 22:21:55 ===
File index: 008031
Input file: /data/retarget/locomotion/raw/AMASS_SMPLXG/EKUT/265/SLP105_stageii.npz
Output file: ../robot/ik_based/pkl/008031.pkl
Status: SKIPPED (ALREADY EXISTS) - NO PROCESSING PERFORMED
==================================================

=== SKIPPED (ALREADY EXISTS) - 2025-10-14 22:21:55 ===
File index: 008032
Input file: /data/retarget/locomotion/raw/AMASS_SMPLXG/EKUT/265/SLP201_stageii.npz
Output file: ../robot/ik_based/pkl/008032.pkl
Status: SKIPPED (ALREADY EXISTS) - NO PROCESSING PERFORMED
==================================================

=== SKIPPED (ALREADY EXISTS) - 2025-10-14 22:21:55 ===
File index: 008033
Input file: /data/retarget/locomotion/raw/AMASS_SMPLXG/EKUT/265/SLP202_stageii.npz
Output file: ../robot/ik_based/pkl/008033.pkl
Status: SKIPPED (ALREADY EXISTS) - NO PROCESSING PERFORMED
==================================================

=== SKIPPED (ALREADY EXISTS) - 2025-10-14 22:21:55 ===
File index: 008034
Input file: /data/retarget/locomotion/raw/AMASS_SMPLXG/EKUT/265/SLP203_stageii.npz
Output file: ../robot/ik_based/pkl/008034.pkl
Status: SKIPPED (ALREADY EXISTS) - NO PROCESSING PERFORMED
==================================================

=== SKIPPED (ALREADY EXISTS) - 2025-10-14 22:21:55 ===
File index: 008035
Input file: /data/retarget/locomotion/raw/AMASS_SMPLXG/EKUT/265/SLP204_stageii.npz
Output file: ../robot/ik_based/pkl/008035.pkl
Status: SKIPPED (ALREADY EXISTS) - NO PROCESSING PERFORMED
==================================================

=== SKIPPED (ALREADY EXISTS) - 2025-10-14 22:21:55 ===
File index: 008036
Input file: /data/retarget/locomotion/raw/AMASS_SMPLXG/EKUT/265/SLP205_stageii.npz
Output file: ../robot/ik_based/pkl/008036.pkl
Status: SKIPPED (ALREADY EXISTS) - NO PROCESSING PERFORMED
==================================================

=== SKIPPED (ALREADY EXISTS) - 2025-10-14 22:21:55 ===
File index: 008037
Input file: /data/retarget/locomotion/raw/AMASS_SMPLXG/EKUT/265/SLP302_stageii.npz
Output file: ../robot/ik_based/pkl/008037.pkl
Status: SKIPPED (ALREADY EXISTS) - NO PROCESSING PERFORMED
==================================================

=== SKIPPED (ALREADY EXISTS) - 2025-10-14 22:21:55 ===
File index: 008038
Input file: /data/retarget/locomotion/raw/AMASS_SMPLXG/EKUT/265/SLP303_stageii.npz
Output file: ../robot/ik_based/pkl/008038.pkl
Status: SKIPPED (ALREADY EXISTS) - NO PROCESSING PERFORMED
==================================================

=== SKIPPED (ALREADY EXISTS) - 2025-10-14 22:21:55 ===
File index: 008039
Input file: /data/retarget/locomotion/raw/AMASS_SMPLXG/EKUT/265/SLP304_stageii.npz
Output file: ../robot/ik_based/pkl/008039.pkl
Status: SKIPPED (ALREADY EXISTS) - NO PROCESSING PERFORMED
==================================================

=== SKIPPED (ALREADY EXISTS) - 2025-10-14 22:21:55 ===
File index: 008040
Input file: /data/retarget/locomotion/raw/AMASS_SMPLXG/EKUT/265/SLP305_stageii.npz
Output file: ../robot/ik_based/pkl/008040.pkl
Status: SKIPPED (ALREADY EXISTS) - NO PROCESSING PERFORMED
==================================================

=== SKIPPED (ALREADY EXISTS) - 2025-10-14 22:21:55 ===
File index: 008041
Input file: /data/retarget/locomotion/raw/AMASS_SMPLXG/EKUT/265/SLPD101_stageii.npz
Output file: ../robot/ik_based/pkl/008041.pkl
Status: SKIPPED (ALREADY EXISTS) - NO PROCESSING PERFORMED
==================================================

=== SKIPPED (ALREADY EXISTS) - 2025-10-14 22:21:55 ===
File index: 008042
Input file: /data/retarget/locomotion/raw/AMASS_SMPLXG/EKUT/265/SLPD102_stageii.npz
Output file: ../robot/ik_based/pkl/008042.pkl
Status: SKIPPED (ALREADY EXISTS) - NO PROCESSING PERFORMED
==================================================

=== SKIPPED (ALREADY EXISTS) - 2025-10-14 22:21:55 ===
File index: 008043
Input file: /data/retarget/locomotion/raw/AMASS_SMPLXG/EKUT/265/SLPD103_stageii.npz
Output file: ../robot/ik_based/pkl/008043.pkl
Status: SKIPPED (ALREADY EXISTS) - NO PROCESSING PERFORMED
==================================================

=== SKIPPED (ALREADY EXISTS) - 2025-10-14 22:21:55 ===
File index: 008044
Input file: /data/retarget/locomotion/raw/AMASS_SMPLXG/EKUT/265/SLPD104_stageii.npz
Output file: ../robot/ik_based/pkl/008044.pkl
Status: SKIPPED (ALREADY EXISTS) - NO PROCESSING PERFORMED
==================================================

=== SKIPPED (ALREADY EXISTS) - 2025-10-14 22:21:55 ===
File index: 008045
Input file: /data/retarget/locomotion/raw/AMASS_SMPLXG/EKUT/265/SLPD105_stageii.npz
Output file: ../robot/ik_based/pkl/008045.pkl
Status: SKIPPED (ALREADY EXISTS) - NO PROCESSING PERFORMED
==================================================

=== SKIPPED (ALREADY EXISTS) - 2025-10-14 22:21:55 ===
File index: 008046
Input file: /data/retarget/locomotion/raw/AMASS_SMPLXG/EKUT/265/SLPD201_stageii.npz
Output file: ../robot/ik_based/pkl/008046.pkl
Status: SKIPPED (ALREADY EXISTS) - NO PROCESSING PERFORMED
==================================================

=== SKIPPED (ALREADY EXISTS) - 2025-10-14 22:21:55 ===
File index: 008047
Input file: /data/retarget/locomotion/raw/AMASS_SMPLXG/EKUT/265/SLPD202_stageii.npz
Output file: ../robot/ik_based/pkl/008047.pkl
Status: SKIPPED (ALREADY EXISTS) - NO PROCESSING PERFORMED
==================================================

=== SKIPPED (ALREADY EXISTS) - 2025-10-14 22:21:55 ===
File index: 008048
Input file: /data/retarget/locomotion/raw/AMASS_SMPLXG/EKUT/265/SLPD203_stageii.npz
Output file: ../robot/ik_based/pkl/008048.pkl
Status: SKIPPED (ALREADY EXISTS) - NO PROCESSING PERFORMED
==================================================

=== SKIPPED (ALREADY EXISTS) - 2025-10-14 22:21:55 ===
File index: 008049
Input file: /data/retarget/locomotion/raw/AMASS_SMPLXG/EKUT/265/SLPD204_stageii.npz
Output file: ../robot/ik_based/pkl/008049.pkl
Status: SKIPPED (ALREADY EXISTS) - NO PROCESSING PERFORMED
==================================================

=== SKIPPED (ALREADY EXISTS) - 2025-10-14 22:21:55 ===
File index: 008050
Input file: /data/retarget/locomotion/raw/AMASS_SMPLXG/EKUT/265/SLPD205_stageii.npz
Output file: ../robot/ik_based/pkl/008050.pkl
Status: SKIPPED (ALREADY EXISTS) - NO PROCESSING PERFORMED
==================================================

=== SKIPPED (ALREADY EXISTS) - 2025-10-14 22:21:55 ===
File index: 008051
Input file: /data/retarget/locomotion/raw/AMASS_SMPLXG/EKUT/265/SLPD301_stageii.npz
Output file: ../robot/ik_based/pkl/008051.pkl
Status: SKIPPED (ALREADY EXISTS) - NO PROCESSING PERFORMED
==================================================

=== SKIPPED (ALREADY EXISTS) - 2025-10-14 22:21:55 ===
File index: 008052
Input file: /data/retarget/locomotion/raw/AMASS_SMPLXG/EKUT/265/SLPD302_stageii.npz
Output file: ../robot/ik_based/pkl/008052.pkl
Status: SKIPPED (ALREADY EXISTS) - NO PROCESSING PERFORMED
==================================================

=== SKIPPED (ALREADY EXISTS) - 2025-10-14 22:21:55 ===
File index: 008053
Input file: /data/retarget/locomotion/raw/AMASS_SMPLXG/EKUT/265/SLPD303_stageii.npz
Output file: ../robot/ik_based/pkl/008053.pkl
Status: SKIPPED (ALREADY EXISTS) - NO PROCESSING PERFORMED
==================================================

=== SKIPPED (ALREADY EXISTS) - 2025-10-14 22:21:55 ===
File index: 008054
Input file: /data/retarget/locomotion/raw/AMASS_SMPLXG/EKUT/265/SLPD304_stageii.npz
Output file: ../robot/ik_based/pkl/008054.pkl
Status: SKIPPED (ALREADY EXISTS) - NO PROCESSING PERFORMED
==================================================

=== SKIPPED (ALREADY EXISTS) - 2025-10-14 22:21:55 ===
File index: 008055
Input file: /data/retarget/locomotion/raw/AMASS_SMPLXG/EKUT/265/SLPD305_stageii.npz
Output file: ../robot/ik_based/pkl/008055.pkl
Status: SKIPPED (ALREADY EXISTS) - NO PROCESSING PERFORMED
==================================================

=== SKIPPED (ALREADY EXISTS) - 2025-10-14 22:21:55 ===
File index: 008056
Input file: /data/retarget/locomotion/raw/AMASS_SMPLXG/EKUT/265/SS1D102_stageii.npz
Output file: ../robot/ik_based/pkl/008056.pkl
Status: SKIPPED (ALREADY EXISTS) - NO PROCESSING PERFORMED
==================================================

=== SKIPPED (ALREADY EXISTS) - 2025-10-14 22:21:55 ===
File index: 008057
Input file: /data/retarget/locomotion/raw/AMASS_SMPLXG/EKUT/265/SS1D103_stageii.npz
Output file: ../robot/ik_based/pkl/008057.pkl
Status: SKIPPED (ALREADY EXISTS) - NO PROCESSING PERFORMED
==================================================

=== SKIPPED (ALREADY EXISTS) - 2025-10-14 22:21:55 ===
File index: 008058
Input file: /data/retarget/locomotion/raw/AMASS_SMPLXG/EKUT/265/SS1D105_stageii.npz
Output file: ../robot/ik_based/pkl/008058.pkl
Status: SKIPPED (ALREADY EXISTS) - NO PROCESSING PERFORMED
==================================================

=== SKIPPED (ALREADY EXISTS) - 2025-10-14 22:21:55 ===
File index: 008059
Input file: /data/retarget/locomotion/raw/AMASS_SMPLXG/EKUT/265/SS1D106_stageii.npz
Output file: ../robot/ik_based/pkl/008059.pkl
Status: SKIPPED (ALREADY EXISTS) - NO PROCESSING PERFORMED
==================================================

=== SKIPPED (ALREADY EXISTS) - 2025-10-14 22:21:55 ===
File index: 008060
Input file: /data/retarget/locomotion/raw/AMASS_SMPLXG/EKUT/265/SS1D107_stageii.npz
Output file: ../robot/ik_based/pkl/008060.pkl
Status: SKIPPED (ALREADY EXISTS) - NO PROCESSING PERFORMED
==================================================

=== SKIPPED (ALREADY EXISTS) - 2025-10-14 22:21:55 ===
File index: 008061
Input file: /data/retarget/locomotion/raw/AMASS_SMPLXG/EKUT/265/SS1D108_stageii.npz
Output file: ../robot/ik_based/pkl/008061.pkl
Status: SKIPPED (ALREADY EXISTS) - NO PROCESSING PERFORMED
==================================================

=== SKIPPED (ALREADY EXISTS) - 2025-10-14 22:21:55 ===
File index: 008062
Input file: /data/retarget/locomotion/raw/AMASS_SMPLXG/EKUT/265/SS2D101_stageii.npz
Output file: ../robot/ik_based/pkl/008062.pkl
Status: SKIPPED (ALREADY EXISTS) - NO PROCESSING PERFORMED
==================================================

=== SKIPPED (ALREADY EXISTS) - 2025-10-14 22:21:55 ===
File index: 008063
Input file: /data/retarget/locomotion/raw/AMASS_SMPLXG/EKUT/265/SS2D102_stageii.npz
Output file: ../robot/ik_based/pkl/008063.pkl
Status: SKIPPED (ALREADY EXISTS) - NO PROCESSING PERFORMED
==================================================

=== SKIPPED (ALREADY EXISTS) - 2025-10-14 22:21:55 ===
File index: 008064
Input file: /data/retarget/locomotion/raw/AMASS_SMPLXG/EKUT/265/SS2D103_stageii.npz
Output file: ../robot/ik_based/pkl/008064.pkl
Status: SKIPPED (ALREADY EXISTS) - NO PROCESSING PERFORMED
==================================================

=== SKIPPED (ALREADY EXISTS) - 2025-10-14 22:21:55 ===
File index: 008065
Input file: /data/retarget/locomotion/raw/AMASS_SMPLXG/EKUT/265/SS2D104_stageii.npz
Output file: ../robot/ik_based/pkl/008065.pkl
Status: SKIPPED (ALREADY EXISTS) - NO PROCESSING PERFORMED
==================================================

=== SKIPPED (ALREADY EXISTS) - 2025-10-14 22:21:55 ===
File index: 008066
Input file: /data/retarget/locomotion/raw/AMASS_SMPLXG/EKUT/265/SS2D105_stageii.npz
Output file: ../robot/ik_based/pkl/008066.pkl
Status: SKIPPED (ALREADY EXISTS) - NO PROCESSING PERFORMED
==================================================

=== SKIPPED (ALREADY EXISTS) - 2025-10-14 22:21:55 ===
File index: 008067
Input file: /data/retarget/locomotion/raw/AMASS_SMPLXG/EKUT/265/TPose_stageii.npz
Output file: ../robot/ik_based/pkl/008067.pkl
Status: SKIPPED (ALREADY EXISTS) - NO PROCESSING PERFORMED
==================================================

=== SKIPPED (ALREADY EXISTS) - 2025-10-14 22:21:55 ===
File index: 008068
Input file: /data/retarget/locomotion/raw/AMASS_SMPLXG/EKUT/265/WSDF01_stageii.npz
Output file: ../robot/ik_based/pkl/008068.pkl
Status: SKIPPED (ALREADY EXISTS) - NO PROCESSING PERFORMED
==================================================

=== SKIPPED (ALREADY EXISTS) - 2025-10-14 22:21:55 ===
File index: 008069
Input file: /data/retarget/locomotion/raw/AMASS_SMPLXG/EKUT/265/WSDF02_stageii.npz
Output file: ../robot/ik_based/pkl/008069.pkl
Status: SKIPPED (ALREADY EXISTS) - NO PROCESSING PERFORMED
==================================================

=== SKIPPED (ALREADY EXISTS) - 2025-10-14 22:21:55 ===
File index: 008070
Input file: /data/retarget/locomotion/raw/AMASS_SMPLXG/EKUT/265/WSDF03_stageii.npz
Output file: ../robot/ik_based/pkl/008070.pkl
Status: SKIPPED (ALREADY EXISTS) - NO PROCESSING PERFORMED
==================================================

=== SKIPPED (ALREADY EXISTS) - 2025-10-14 22:21:56 ===
File index: 008071
Input file: /data/retarget/locomotion/raw/AMASS_SMPLXG/EKUT/265/WSDF04_stageii.npz
Output file: ../robot/ik_based/pkl/008071.pkl
Status: SKIPPED (ALREADY EXISTS) - NO PROCESSING PERFORMED
==================================================

=== SKIPPED (ALREADY EXISTS) - 2025-10-14 22:21:56 ===
File index: 008072
Input file: /data/retarget/locomotion/raw/AMASS_SMPLXG/EKUT/265/WSDF05_stageii.npz
Output file: ../robot/ik_based/pkl/008072.pkl
Status: SKIPPED (ALREADY EXISTS) - NO PROCESSING PERFORMED
==================================================

=== SKIPPED (ALREADY EXISTS) - 2025-10-14 22:21:56 ===
File index: 008073
Input file: /data/retarget/locomotion/raw/AMASS_SMPLXG/EKUT/265/WSTR01_stageii.npz
Output file: ../robot/ik_based/pkl/008073.pkl
Status: SKIPPED (ALREADY EXISTS) - NO PROCESSING PERFORMED
==================================================

=== SKIPPED (ALREADY EXISTS) - 2025-10-14 22:21:56 ===
File index: 008074
Input file: /data/retarget/locomotion/raw/AMASS_SMPLXG/EKUT/265/WSTR02_stageii.npz
Output file: ../robot/ik_based/pkl/008074.pkl
Status: SKIPPED (ALREADY EXISTS) - NO PROCESSING PERFORMED
==================================================

=== SKIPPED (ALREADY EXISTS) - 2025-10-14 22:21:56 ===
File index: 008075
Input file: /data/retarget/locomotion/raw/AMASS_SMPLXG/EKUT/265/WSTR03_stageii.npz
Output file: ../robot/ik_based/pkl/008075.pkl
Status: SKIPPED (ALREADY EXISTS) - NO PROCESSING PERFORMED
==================================================

=== SKIPPED (ALREADY EXISTS) - 2025-10-14 22:21:56 ===
File index: 008076
Input file: /data/retarget/locomotion/raw/AMASS_SMPLXG/EKUT/265/WSTR04_stageii.npz
Output file: ../robot/ik_based/pkl/008076.pkl
Status: SKIPPED (ALREADY EXISTS) - NO PROCESSING PERFORMED
==================================================

=== SKIPPED (ALREADY EXISTS) - 2025-10-14 22:21:56 ===
File index: 008077
Input file: /data/retarget/locomotion/raw/AMASS_SMPLXG/EKUT/265/WSTR05_stageii.npz
Output file: ../robot/ik_based/pkl/008077.pkl
Status: SKIPPED (ALREADY EXISTS) - NO PROCESSING PERFORMED
==================================================

=== SKIPPED (ALREADY EXISTS) - 2025-10-14 22:21:56 ===
File index: 008078
Input file: /data/retarget/locomotion/raw/AMASS_SMPLXG/EKUT/265/WSUF01_stageii.npz
Output file: ../robot/ik_based/pkl/008078.pkl
Status: SKIPPED (ALREADY EXISTS) - NO PROCESSING PERFORMED
==================================================

=== SKIPPED (ALREADY EXISTS) - 2025-10-14 22:21:56 ===
File index: 008079
Input file: /data/retarget/locomotion/raw/AMASS_SMPLXG/EKUT/265/WSUF02_stageii.npz
Output file: ../robot/ik_based/pkl/008079.pkl
Status: SKIPPED (ALREADY EXISTS) - NO PROCESSING PERFORMED
==================================================

=== SKIPPED (ALREADY EXISTS) - 2025-10-14 22:21:56 ===
File index: 008080
Input file: /data/retarget/locomotion/raw/AMASS_SMPLXG/EKUT/265/WSUF03_stageii.npz
Output file: ../robot/ik_based/pkl/008080.pkl
Status: SKIPPED (ALREADY EXISTS) - NO PROCESSING PERFORMED
==================================================

=== SKIPPED (ALREADY EXISTS) - 2025-10-14 22:21:56 ===
File index: 008081
Input file: /data/retarget/locomotion/raw/AMASS_SMPLXG/EKUT/265/WSUF04_stageii.npz
Output file: ../robot/ik_based/pkl/008081.pkl
Status: SKIPPED (ALREADY EXISTS) - NO PROCESSING PERFORMED
==================================================

=== SKIPPED (ALREADY EXISTS) - 2025-10-14 22:21:56 ===
File index: 008082
Input file: /data/retarget/locomotion/raw/AMASS_SMPLXG/EKUT/265/WSUF05_stageii.npz
Output file: ../robot/ik_based/pkl/008082.pkl
Status: SKIPPED (ALREADY EXISTS) - NO PROCESSING PERFORMED
==================================================

=== ERROR LOG - 2025-10-14 22:21:59 ===
Input file: /data/retarget/locomotion/raw/AMASS_SMPLXG/EKUT/265/male_stagei.npz
Output file: ../robot/ik_based/pkl/008083.pkl
Robot type: unitree_g1
Processing time: 2.90 seconds
Error message: 'pose_body is not a file in the archive'
Error type: KeyError
==================================================

=== FILE FAILURE - 2025-10-14 22:21:59 ===
File index: 008083
File number: 84/9757
Input file: /data/retarget/locomotion/raw/AMASS_SMPLXG/EKUT/265/male_stagei.npz
Output file: ../robot/ik_based/pkl/008083.pkl
Processing time: 2.90 seconds
Total file time: 3.22 seconds
Status: FAILED
==================================================

=== SKIPPED (ALREADY EXISTS) - 2025-10-14 22:21:59 ===
File index: 008084
Input file: /data/retarget/locomotion/raw/AMASS_SMPLXG/EKUT/300/PushBK_01_stageii.npz
Output file: ../robot/ik_based/pkl/008084.pkl
Status: SKIPPED (ALREADY EXISTS) - NO PROCESSING PERFORMED
==================================================

=== SKIPPED (ALREADY EXISTS) - 2025-10-14 22:21:59 ===
File index: 008085
Input file: /data/retarget/locomotion/raw/AMASS_SMPLXG/EKUT/300/PushBK_04_stageii.npz
Output file: ../robot/ik_based/pkl/008085.pkl
Status: SKIPPED (ALREADY EXISTS) - NO PROCESSING PERFORMED
==================================================

=== SKIPPED (ALREADY EXISTS) - 2025-10-14 22:21:59 ===
File index: 008086
Input file: /data/retarget/locomotion/raw/AMASS_SMPLXG/EKUT/300/PushBK_05_stageii.npz
Output file: ../robot/ik_based/pkl/008086.pkl
Status: SKIPPED (ALREADY EXISTS) - NO PROCESSING PERFORMED
==================================================

=== SKIPPED (ALREADY EXISTS) - 2025-10-14 22:21:59 ===
File index: 008087
Input file: /data/retarget/locomotion/raw/AMASS_SMPLXG/EKUT/300/PushBK_06_stageii.npz
Output file: ../robot/ik_based/pkl/008087.pkl
Status: SKIPPED (ALREADY EXISTS) - NO PROCESSING PERFORMED
==================================================

=== SKIPPED (ALREADY EXISTS) - 2025-10-14 22:21:59 ===
File index: 008088
Input file: /data/retarget/locomotion/raw/AMASS_SMPLXG/EKUT/300/PushBK_07_stageii.npz
Output file: ../robot/ik_based/pkl/008088.pkl
Status: SKIPPED (ALREADY EXISTS) - NO PROCESSING PERFORMED
==================================================

=== SKIPPED (ALREADY EXISTS) - 2025-10-14 22:21:59 ===
File index: 008089
Input file: /data/retarget/locomotion/raw/AMASS_SMPLXG/EKUT/300/PushBK_08_stageii.npz
Output file: ../robot/ik_based/pkl/008089.pkl
Status: SKIPPED (ALREADY EXISTS) - NO PROCESSING PERFORMED
==================================================

=== SKIPPED (ALREADY EXISTS) - 2025-10-14 22:21:59 ===
File index: 008090
Input file: /data/retarget/locomotion/raw/AMASS_SMPLXG/EKUT/300/PushBK_11_stageii.npz
Output file: ../robot/ik_based/pkl/008090.pkl
Status: SKIPPED (ALREADY EXISTS) - NO PROCESSING PERFORMED
==================================================

=== SKIPPED (ALREADY EXISTS) - 2025-10-14 22:21:59 ===
File index: 008091
Input file: /data/retarget/locomotion/raw/AMASS_SMPLXG/EKUT/300/PushBK_12_stageii.npz
Output file: ../robot/ik_based/pkl/008091.pkl
Status: SKIPPED (ALREADY EXISTS) - NO PROCESSING PERFORMED
==================================================

=== SKIPPED (ALREADY EXISTS) - 2025-10-14 22:21:59 ===
File index: 008092
Input file: /data/retarget/locomotion/raw/AMASS_SMPLXG/EKUT/300/PushBK_13_stageii.npz
Output file: ../robot/ik_based/pkl/008092.pkl
Status: SKIPPED (ALREADY EXISTS) - NO PROCESSING PERFORMED
==================================================

=== SKIPPED (ALREADY EXISTS) - 2025-10-14 22:21:59 ===
File index: 008093
Input file: /data/retarget/locomotion/raw/AMASS_SMPLXG/EKUT/300/PushBK_14_stageii.npz
Output file: ../robot/ik_based/pkl/008093.pkl
Status: SKIPPED (ALREADY EXISTS) - NO PROCESSING PERFORMED
==================================================

=== SKIPPED (ALREADY EXISTS) - 2025-10-14 22:21:59 ===
File index: 008094
Input file: /data/retarget/locomotion/raw/AMASS_SMPLXG/EKUT/300/PushBK_15_stageii.npz
Output file: ../robot/ik_based/pkl/008094.pkl
Status: SKIPPED (ALREADY EXISTS) - NO PROCESSING PERFORMED
==================================================

=== SKIPPED (ALREADY EXISTS) - 2025-10-14 22:21:59 ===
File index: 008095
Input file: /data/retarget/locomotion/raw/AMASS_SMPLXG/EKUT/300/PushBK_16_stageii.npz
Output file: ../robot/ik_based/pkl/008095.pkl
Status: SKIPPED (ALREADY EXISTS) - NO PROCESSING PERFORMED
==================================================

=== SKIPPED (ALREADY EXISTS) - 2025-10-14 22:21:59 ===
File index: 008096
Input file: /data/retarget/locomotion/raw/AMASS_SMPLXG/EKUT/300/PushBK_17_stageii.npz
Output file: ../robot/ik_based/pkl/008096.pkl
Status: SKIPPED (ALREADY EXISTS) - NO PROCESSING PERFORMED
==================================================

=== SKIPPED (ALREADY EXISTS) - 2025-10-14 22:21:59 ===
File index: 008097
Input file: /data/retarget/locomotion/raw/AMASS_SMPLXG/EKUT/300/PushBK_18_stageii.npz
Output file: ../robot/ik_based/pkl/008097.pkl
Status: SKIPPED (ALREADY EXISTS) - NO PROCESSING PERFORMED
==================================================

=== SKIPPED (ALREADY EXISTS) - 2025-10-14 22:21:59 ===
File index: 008098
Input file: /data/retarget/locomotion/raw/AMASS_SMPLXG/EKUT/300/PushBK_19_stageii.npz
Output file: ../robot/ik_based/pkl/008098.pkl
Status: SKIPPED (ALREADY EXISTS) - NO PROCESSING PERFORMED
==================================================

=== SKIPPED (ALREADY EXISTS) - 2025-10-14 22:21:59 ===
File index: 008099
Input file: /data/retarget/locomotion/raw/AMASS_SMPLXG/EKUT/300/PushBK_20_stageii.npz
Output file: ../robot/ik_based/pkl/008099.pkl
Status: SKIPPED (ALREADY EXISTS) - NO PROCESSING PERFORMED
==================================================

=== SKIPPED (ALREADY EXISTS) - 2025-10-14 22:21:59 ===
File index: 008100
Input file: /data/retarget/locomotion/raw/AMASS_SMPLXG/EKUT/300/PushBK_21_stageii.npz
Output file: ../robot/ik_based/pkl/008100.pkl
Status: SKIPPED (ALREADY EXISTS) - NO PROCESSING PERFORMED
==================================================

=== SKIPPED (ALREADY EXISTS) - 2025-10-14 22:21:59 ===
File index: 008101
Input file: /data/retarget/locomotion/raw/AMASS_SMPLXG/EKUT/300/PushBK_22_stageii.npz
Output file: ../robot/ik_based/pkl/008101.pkl
Status: SKIPPED (ALREADY EXISTS) - NO PROCESSING PERFORMED
==================================================

=== SKIPPED (ALREADY EXISTS) - 2025-10-14 22:21:59 ===
File index: 008102
Input file: /data/retarget/locomotion/raw/AMASS_SMPLXG/EKUT/300/PushBK_23_stageii.npz
Output file: ../robot/ik_based/pkl/008102.pkl
Status: SKIPPED (ALREADY EXISTS) - NO PROCESSING PERFORMED
==================================================

=== SKIPPED (ALREADY EXISTS) - 2025-10-14 22:21:59 ===
File index: 008103
Input file: /data/retarget/locomotion/raw/AMASS_SMPLXG/EKUT/300/PushBK_24_stageii.npz
Output file: ../robot/ik_based/pkl/008103.pkl
Status: SKIPPED (ALREADY EXISTS) - NO PROCESSING PERFORMED
==================================================

=== SKIPPED (ALREADY EXISTS) - 2025-10-14 22:21:59 ===
File index: 008104
Input file: /data/retarget/locomotion/raw/AMASS_SMPLXG/EKUT/300/PushBK_25_stageii.npz
Output file: ../robot/ik_based/pkl/008104.pkl
Status: SKIPPED (ALREADY EXISTS) - NO PROCESSING PERFORMED
==================================================

=== SKIPPED (ALREADY EXISTS) - 2025-10-14 22:21:59 ===
File index: 008105
Input file: /data/retarget/locomotion/raw/AMASS_SMPLXG/EKUT/300/PushBeamPedar_01_stageii.npz
Output file: ../robot/ik_based/pkl/008105.pkl
Status: SKIPPED (ALREADY EXISTS) - NO PROCESSING PERFORMED
==================================================

=== SKIPPED (ALREADY EXISTS) - 2025-10-14 22:21:59 ===
File index: 008106
Input file: /data/retarget/locomotion/raw/AMASS_SMPLXG/EKUT/300/PushBeamPedar_03_stageii.npz
Output file: ../robot/ik_based/pkl/008106.pkl
Status: SKIPPED (ALREADY EXISTS) - NO PROCESSING PERFORMED
==================================================

=== SKIPPED (ALREADY EXISTS) - 2025-10-14 22:21:59 ===
File index: 008107
Input file: /data/retarget/locomotion/raw/AMASS_SMPLXG/EKUT/300/PushBeamPedar_04_stageii.npz
Output file: ../robot/ik_based/pkl/008107.pkl
Status: SKIPPED (ALREADY EXISTS) - NO PROCESSING PERFORMED
==================================================

=== SKIPPED (ALREADY EXISTS) - 2025-10-14 22:21:59 ===
File index: 008108
Input file: /data/retarget/locomotion/raw/AMASS_SMPLXG/EKUT/300/PushBeamPedar_06_stageii.npz
Output file: ../robot/ik_based/pkl/008108.pkl
Status: SKIPPED (ALREADY EXISTS) - NO PROCESSING PERFORMED
==================================================

=== SKIPPED (ALREADY EXISTS) - 2025-10-14 22:21:59 ===
File index: 008109
Input file: /data/retarget/locomotion/raw/AMASS_SMPLXG/EKUT/300/PushBeamPedar_07_stageii.npz
Output file: ../robot/ik_based/pkl/008109.pkl
Status: SKIPPED (ALREADY EXISTS) - NO PROCESSING PERFORMED
==================================================

=== SKIPPED (ALREADY EXISTS) - 2025-10-14 22:21:59 ===
File index: 008110
Input file: /data/retarget/locomotion/raw/AMASS_SMPLXG/EKUT/300/PushBeamPedar_08_stageii.npz
Output file: ../robot/ik_based/pkl/008110.pkl
Status: SKIPPED (ALREADY EXISTS) - NO PROCESSING PERFORMED
==================================================

=== SKIPPED (ALREADY EXISTS) - 2025-10-14 22:21:59 ===
File index: 008111
Input file: /data/retarget/locomotion/raw/AMASS_SMPLXG/EKUT/300/PushBeamPedar_09_stageii.npz
Output file: ../robot/ik_based/pkl/008111.pkl
Status: SKIPPED (ALREADY EXISTS) - NO PROCESSING PERFORMED
==================================================

=== SKIPPED (ALREADY EXISTS) - 2025-10-14 22:21:59 ===
File index: 008112
Input file: /data/retarget/locomotion/raw/AMASS_SMPLXG/EKUT/300/PushBeamPedar_10_stageii.npz
Output file: ../robot/ik_based/pkl/008112.pkl
Status: SKIPPED (ALREADY EXISTS) - NO PROCESSING PERFORMED
==================================================

=== SKIPPED (ALREADY EXISTS) - 2025-10-14 22:21:59 ===
File index: 008113
Input file: /data/retarget/locomotion/raw/AMASS_SMPLXG/EKUT/300/PushBeamPedar_11_stageii.npz
Output file: ../robot/ik_based/pkl/008113.pkl
Status: SKIPPED (ALREADY EXISTS) - NO PROCESSING PERFORMED
==================================================

=== SKIPPED (ALREADY EXISTS) - 2025-10-14 22:21:59 ===
File index: 008114
Input file: /data/retarget/locomotion/raw/AMASS_SMPLXG/EKUT/300/PushBeamPedar_12_stageii.npz
Output file: ../robot/ik_based/pkl/008114.pkl
Status: SKIPPED (ALREADY EXISTS) - NO PROCESSING PERFORMED
==================================================

=== SKIPPED (ALREADY EXISTS) - 2025-10-14 22:21:59 ===
File index: 008115
Input file: /data/retarget/locomotion/raw/AMASS_SMPLXG/EKUT/300/PushBeamPedar_13_stageii.npz
Output file: ../robot/ik_based/pkl/008115.pkl
Status: SKIPPED (ALREADY EXISTS) - NO PROCESSING PERFORMED
==================================================

=== SKIPPED (ALREADY EXISTS) - 2025-10-14 22:21:59 ===
File index: 008116
Input file: /data/retarget/locomotion/raw/AMASS_SMPLXG/EKUT/300/PushBeamPedar_14_stageii.npz
Output file: ../robot/ik_based/pkl/008116.pkl
Status: SKIPPED (ALREADY EXISTS) - NO PROCESSING PERFORMED
==================================================

=== SKIPPED (ALREADY EXISTS) - 2025-10-14 22:21:59 ===
File index: 008117
Input file: /data/retarget/locomotion/raw/AMASS_SMPLXG/EKUT/300/PushBeamPedar_15_stageii.npz
Output file: ../robot/ik_based/pkl/008117.pkl
Status: SKIPPED (ALREADY EXISTS) - NO PROCESSING PERFORMED
==================================================

=== SKIPPED (ALREADY EXISTS) - 2025-10-14 22:21:59 ===
File index: 008118
Input file: /data/retarget/locomotion/raw/AMASS_SMPLXG/EKUT/300/PushBeamPedar_16_stageii.npz
Output file: ../robot/ik_based/pkl/008118.pkl
Status: SKIPPED (ALREADY EXISTS) - NO PROCESSING PERFORMED
==================================================

=== SKIPPED (ALREADY EXISTS) - 2025-10-14 22:21:59 ===
File index: 008119
Input file: /data/retarget/locomotion/raw/AMASS_SMPLXG/EKUT/300/PushBeamPedar_17_stageii.npz
Output file: ../robot/ik_based/pkl/008119.pkl
Status: SKIPPED (ALREADY EXISTS) - NO PROCESSING PERFORMED
==================================================

=== SKIPPED (ALREADY EXISTS) - 2025-10-14 22:21:59 ===
File index: 008120
Input file: /data/retarget/locomotion/raw/AMASS_SMPLXG/EKUT/300/PushBeamPedar_18_stageii.npz
Output file: ../robot/ik_based/pkl/008120.pkl
Status: SKIPPED (ALREADY EXISTS) - NO PROCESSING PERFORMED
==================================================

=== SKIPPED (ALREADY EXISTS) - 2025-10-14 22:21:59 ===
File index: 008121
Input file: /data/retarget/locomotion/raw/AMASS_SMPLXG/EKUT/300/PushBeamPedar_19_stageii.npz
Output file: ../robot/ik_based/pkl/008121.pkl
Status: SKIPPED (ALREADY EXISTS) - NO PROCESSING PERFORMED
==================================================

=== SKIPPED (ALREADY EXISTS) - 2025-10-14 22:21:59 ===
File index: 008122
Input file: /data/retarget/locomotion/raw/AMASS_SMPLXG/EKUT/300/PushBeamPedar_20_stageii.npz
Output file: ../robot/ik_based/pkl/008122.pkl
Status: SKIPPED (ALREADY EXISTS) - NO PROCESSING PERFORMED
==================================================

=== SKIPPED (ALREADY EXISTS) - 2025-10-14 22:21:59 ===
File index: 008123
Input file: /data/retarget/locomotion/raw/AMASS_SMPLXG/EKUT/300/PushBeamPedar_21_stageii.npz
Output file: ../robot/ik_based/pkl/008123.pkl
Status: SKIPPED (ALREADY EXISTS) - NO PROCESSING PERFORMED
==================================================

=== SKIPPED (ALREADY EXISTS) - 2025-10-14 22:21:59 ===
File index: 008124
Input file: /data/retarget/locomotion/raw/AMASS_SMPLXG/EKUT/300/PushBeamPedar_22_stageii.npz
Output file: ../robot/ik_based/pkl/008124.pkl
Status: SKIPPED (ALREADY EXISTS) - NO PROCESSING PERFORMED
==================================================

=== SKIPPED (ALREADY EXISTS) - 2025-10-14 22:21:59 ===
File index: 008125
Input file: /data/retarget/locomotion/raw/AMASS_SMPLXG/EKUT/300/PushBeamPedar_23_stageii.npz
Output file: ../robot/ik_based/pkl/008125.pkl
Status: SKIPPED (ALREADY EXISTS) - NO PROCESSING PERFORMED
==================================================

=== SKIPPED (ALREADY EXISTS) - 2025-10-14 22:21:59 ===
File index: 008126
Input file: /data/retarget/locomotion/raw/AMASS_SMPLXG/EKUT/300/PushBeamPedar_24_stageii.npz
Output file: ../robot/ik_based/pkl/008126.pkl
Status: SKIPPED (ALREADY EXISTS) - NO PROCESSING PERFORMED
==================================================

=== SKIPPED (ALREADY EXISTS) - 2025-10-14 22:21:59 ===
File index: 008127
Input file: /data/retarget/locomotion/raw/AMASS_SMPLXG/EKUT/300/PushBeamPedar_25_stageii.npz
Output file: ../robot/ik_based/pkl/008127.pkl
Status: SKIPPED (ALREADY EXISTS) - NO PROCESSING PERFORMED
==================================================

=== SKIPPED (ALREADY EXISTS) - 2025-10-14 22:21:59 ===
File index: 008128
Input file: /data/retarget/locomotion/raw/AMASS_SMPLXG/EKUT/300/PushBeam_03_stageii.npz
Output file: ../robot/ik_based/pkl/008128.pkl
Status: SKIPPED (ALREADY EXISTS) - NO PROCESSING PERFORMED
==================================================

=== SKIPPED (ALREADY EXISTS) - 2025-10-14 22:21:59 ===
File index: 008129
Input file: /data/retarget/locomotion/raw/AMASS_SMPLXG/EKUT/300/PushBeam_04_stageii.npz
Output file: ../robot/ik_based/pkl/008129.pkl
Status: SKIPPED (ALREADY EXISTS) - NO PROCESSING PERFORMED
==================================================

=== SKIPPED (ALREADY EXISTS) - 2025-10-14 22:21:59 ===
File index: 008130
Input file: /data/retarget/locomotion/raw/AMASS_SMPLXG/EKUT/300/PushBeam_06_stageii.npz
Output file: ../robot/ik_based/pkl/008130.pkl
Status: SKIPPED (ALREADY EXISTS) - NO PROCESSING PERFORMED
==================================================

=== SKIPPED (ALREADY EXISTS) - 2025-10-14 22:21:59 ===
File index: 008131
Input file: /data/retarget/locomotion/raw/AMASS_SMPLXG/EKUT/300/PushBeam_08_stageii.npz
Output file: ../robot/ik_based/pkl/008131.pkl
Status: SKIPPED (ALREADY EXISTS) - NO PROCESSING PERFORMED
==================================================

=== SKIPPED (ALREADY EXISTS) - 2025-10-14 22:21:59 ===
File index: 008132
Input file: /data/retarget/locomotion/raw/AMASS_SMPLXG/EKUT/300/PushBeam_09_stageii.npz
Output file: ../robot/ik_based/pkl/008132.pkl
Status: SKIPPED (ALREADY EXISTS) - NO PROCESSING PERFORMED
==================================================

=== SKIPPED (ALREADY EXISTS) - 2025-10-14 22:21:59 ===
File index: 008133
Input file: /data/retarget/locomotion/raw/AMASS_SMPLXG/EKUT/300/PushBeam_10_stageii.npz
Output file: ../robot/ik_based/pkl/008133.pkl
Status: SKIPPED (ALREADY EXISTS) - NO PROCESSING PERFORMED
==================================================

=== SKIPPED (ALREADY EXISTS) - 2025-10-14 22:21:59 ===
File index: 008134
Input file: /data/retarget/locomotion/raw/AMASS_SMPLXG/EKUT/300/PushBeam_13_stageii.npz
Output file: ../robot/ik_based/pkl/008134.pkl
Status: SKIPPED (ALREADY EXISTS) - NO PROCESSING PERFORMED
==================================================

=== SKIPPED (ALREADY EXISTS) - 2025-10-14 22:21:59 ===
File index: 008135
Input file: /data/retarget/locomotion/raw/AMASS_SMPLXG/EKUT/300/PushBeam_14_stageii.npz
Output file: ../robot/ik_based/pkl/008135.pkl
Status: SKIPPED (ALREADY EXISTS) - NO PROCESSING PERFORMED
==================================================

=== SKIPPED (ALREADY EXISTS) - 2025-10-14 22:21:59 ===
File index: 008136
Input file: /data/retarget/locomotion/raw/AMASS_SMPLXG/EKUT/300/PushBeam_15_stageii.npz
Output file: ../robot/ik_based/pkl/008136.pkl
Status: SKIPPED (ALREADY EXISTS) - NO PROCESSING PERFORMED
==================================================

=== SKIPPED (ALREADY EXISTS) - 2025-10-14 22:21:59 ===
File index: 008137
Input file: /data/retarget/locomotion/raw/AMASS_SMPLXG/EKUT/300/PushBeam_16_stageii.npz
Output file: ../robot/ik_based/pkl/008137.pkl
Status: SKIPPED (ALREADY EXISTS) - NO PROCESSING PERFORMED
==================================================

=== SKIPPED (ALREADY EXISTS) - 2025-10-14 22:21:59 ===
File index: 008138
Input file: /data/retarget/locomotion/raw/AMASS_SMPLXG/EKUT/300/PushBeam_17_stageii.npz
Output file: ../robot/ik_based/pkl/008138.pkl
Status: SKIPPED (ALREADY EXISTS) - NO PROCESSING PERFORMED
==================================================

=== SKIPPED (ALREADY EXISTS) - 2025-10-14 22:21:59 ===
File index: 008139
Input file: /data/retarget/locomotion/raw/AMASS_SMPLXG/EKUT/300/PushBeam_18_stageii.npz
Output file: ../robot/ik_based/pkl/008139.pkl
Status: SKIPPED (ALREADY EXISTS) - NO PROCESSING PERFORMED
==================================================

=== SKIPPED (ALREADY EXISTS) - 2025-10-14 22:21:59 ===
File index: 008140
Input file: /data/retarget/locomotion/raw/AMASS_SMPLXG/EKUT/300/PushBeam_20_stageii.npz
Output file: ../robot/ik_based/pkl/008140.pkl
Status: SKIPPED (ALREADY EXISTS) - NO PROCESSING PERFORMED
==================================================

=== SKIPPED (ALREADY EXISTS) - 2025-10-14 22:21:59 ===
File index: 008141
Input file: /data/retarget/locomotion/raw/AMASS_SMPLXG/EKUT/300/PushBeam_23_stageii.npz
Output file: ../robot/ik_based/pkl/008141.pkl
Status: SKIPPED (ALREADY EXISTS) - NO PROCESSING PERFORMED
==================================================

=== SKIPPED (ALREADY EXISTS) - 2025-10-14 22:21:59 ===
File index: 008142
Input file: /data/retarget/locomotion/raw/AMASS_SMPLXG/EKUT/300/PushBeam_24_stageii.npz
Output file: ../robot/ik_based/pkl/008142.pkl
Status: SKIPPED (ALREADY EXISTS) - NO PROCESSING PERFORMED
==================================================

=== SKIPPED (ALREADY EXISTS) - 2025-10-14 22:21:59 ===
File index: 008143
Input file: /data/retarget/locomotion/raw/AMASS_SMPLXG/EKUT/300/PushStandClosed_01_stageii.npz
Output file: ../robot/ik_based/pkl/008143.pkl
Status: SKIPPED (ALREADY EXISTS) - NO PROCESSING PERFORMED
==================================================

=== SKIPPED (ALREADY EXISTS) - 2025-10-14 22:21:59 ===
File index: 008144
Input file: /data/retarget/locomotion/raw/AMASS_SMPLXG/EKUT/300/PushStandClosed_02_stageii.npz
Output file: ../robot/ik_based/pkl/008144.pkl
Status: SKIPPED (ALREADY EXISTS) - NO PROCESSING PERFORMED
==================================================

=== SKIPPED (ALREADY EXISTS) - 2025-10-14 22:21:59 ===
File index: 008145
Input file: /data/retarget/locomotion/raw/AMASS_SMPLXG/EKUT/300/PushStandClosed_03_stageii.npz
Output file: ../robot/ik_based/pkl/008145.pkl
Status: SKIPPED (ALREADY EXISTS) - NO PROCESSING PERFORMED
==================================================

=== SKIPPED (ALREADY EXISTS) - 2025-10-14 22:21:59 ===
File index: 008146
Input file: /data/retarget/locomotion/raw/AMASS_SMPLXG/EKUT/300/PushStandClosed_04_stageii.npz
Output file: ../robot/ik_based/pkl/008146.pkl
Status: SKIPPED (ALREADY EXISTS) - NO PROCESSING PERFORMED
==================================================

=== SKIPPED (ALREADY EXISTS) - 2025-10-14 22:21:59 ===
File index: 008147
Input file: /data/retarget/locomotion/raw/AMASS_SMPLXG/EKUT/300/PushStandClosed_05_stageii.npz
Output file: ../robot/ik_based/pkl/008147.pkl
Status: SKIPPED (ALREADY EXISTS) - NO PROCESSING PERFORMED
==================================================

=== SKIPPED (ALREADY EXISTS) - 2025-10-14 22:21:59 ===
File index: 008148
Input file: /data/retarget/locomotion/raw/AMASS_SMPLXG/EKUT/300/PushStandClosed_06_stageii.npz
Output file: ../robot/ik_based/pkl/008148.pkl
Status: SKIPPED (ALREADY EXISTS) - NO PROCESSING PERFORMED
==================================================

=== SKIPPED (ALREADY EXISTS) - 2025-10-14 22:21:59 ===
File index: 008149
Input file: /data/retarget/locomotion/raw/AMASS_SMPLXG/EKUT/300/PushStandClosed_07_stageii.npz
Output file: ../robot/ik_based/pkl/008149.pkl
Status: SKIPPED (ALREADY EXISTS) - NO PROCESSING PERFORMED
==================================================

=== SKIPPED (ALREADY EXISTS) - 2025-10-14 22:21:59 ===
File index: 008150
Input file: /data/retarget/locomotion/raw/AMASS_SMPLXG/EKUT/300/PushStandClosed_08_stageii.npz
Output file: ../robot/ik_based/pkl/008150.pkl
Status: SKIPPED (ALREADY EXISTS) - NO PROCESSING PERFORMED
==================================================

=== SKIPPED (ALREADY EXISTS) - 2025-10-14 22:21:59 ===
File index: 008151
Input file: /data/retarget/locomotion/raw/AMASS_SMPLXG/EKUT/300/PushStandClosed_09_stageii.npz
Output file: ../robot/ik_based/pkl/008151.pkl
Status: SKIPPED (ALREADY EXISTS) - NO PROCESSING PERFORMED
==================================================

=== SKIPPED (ALREADY EXISTS) - 2025-10-14 22:21:59 ===
File index: 008152
Input file: /data/retarget/locomotion/raw/AMASS_SMPLXG/EKUT/300/PushStandClosed_10_stageii.npz
Output file: ../robot/ik_based/pkl/008152.pkl
Status: SKIPPED (ALREADY EXISTS) - NO PROCESSING PERFORMED
==================================================

=== SKIPPED (ALREADY EXISTS) - 2025-10-14 22:21:59 ===
File index: 008153
Input file: /data/retarget/locomotion/raw/AMASS_SMPLXG/EKUT/300/PushStandOpen_01_stageii.npz
Output file: ../robot/ik_based/pkl/008153.pkl
Status: SKIPPED (ALREADY EXISTS) - NO PROCESSING PERFORMED
==================================================

=== SKIPPED (ALREADY EXISTS) - 2025-10-14 22:21:59 ===
File index: 008154
Input file: /data/retarget/locomotion/raw/AMASS_SMPLXG/EKUT/300/PushStandOpen_02_stageii.npz
Output file: ../robot/ik_based/pkl/008154.pkl
Status: SKIPPED (ALREADY EXISTS) - NO PROCESSING PERFORMED
==================================================

=== SKIPPED (ALREADY EXISTS) - 2025-10-14 22:21:59 ===
File index: 008155
Input file: /data/retarget/locomotion/raw/AMASS_SMPLXG/EKUT/300/PushStandOpen_03_stageii.npz
Output file: ../robot/ik_based/pkl/008155.pkl
Status: SKIPPED (ALREADY EXISTS) - NO PROCESSING PERFORMED
==================================================

=== SKIPPED (ALREADY EXISTS) - 2025-10-14 22:21:59 ===
File index: 008156
Input file: /data/retarget/locomotion/raw/AMASS_SMPLXG/EKUT/300/PushStandOpen_04_stageii.npz
Output file: ../robot/ik_based/pkl/008156.pkl
Status: SKIPPED (ALREADY EXISTS) - NO PROCESSING PERFORMED
==================================================

=== SKIPPED (ALREADY EXISTS) - 2025-10-14 22:21:59 ===
File index: 008157
Input file: /data/retarget/locomotion/raw/AMASS_SMPLXG/EKUT/300/PushStandOpen_05_stageii.npz
Output file: ../robot/ik_based/pkl/008157.pkl
Status: SKIPPED (ALREADY EXISTS) - NO PROCESSING PERFORMED
==================================================

=== SKIPPED (ALREADY EXISTS) - 2025-10-14 22:21:59 ===
File index: 008158
Input file: /data/retarget/locomotion/raw/AMASS_SMPLXG/EKUT/300/PushStandOpen_06_stageii.npz
Output file: ../robot/ik_based/pkl/008158.pkl
Status: SKIPPED (ALREADY EXISTS) - NO PROCESSING PERFORMED
==================================================

=== SKIPPED (ALREADY EXISTS) - 2025-10-14 22:21:59 ===
File index: 008159
Input file: /data/retarget/locomotion/raw/AMASS_SMPLXG/EKUT/300/PushStandOpen_07_stageii.npz
Output file: ../robot/ik_based/pkl/008159.pkl
Status: SKIPPED (ALREADY EXISTS) - NO PROCESSING PERFORMED
==================================================

=== SKIPPED (ALREADY EXISTS) - 2025-10-14 22:21:59 ===
File index: 008160
Input file: /data/retarget/locomotion/raw/AMASS_SMPLXG/EKUT/300/PushStandOpen_08_stageii.npz
Output file: ../robot/ik_based/pkl/008160.pkl
Status: SKIPPED (ALREADY EXISTS) - NO PROCESSING PERFORMED
==================================================

=== SKIPPED (ALREADY EXISTS) - 2025-10-14 22:21:59 ===
File index: 008161
Input file: /data/retarget/locomotion/raw/AMASS_SMPLXG/EKUT/300/PushStandOpen_09_stageii.npz
Output file: ../robot/ik_based/pkl/008161.pkl
Status: SKIPPED (ALREADY EXISTS) - NO PROCESSING PERFORMED
==================================================

=== SKIPPED (ALREADY EXISTS) - 2025-10-14 22:21:59 ===
File index: 008162
Input file: /data/retarget/locomotion/raw/AMASS_SMPLXG/EKUT/300/PushStandOpen_10_stageii.npz
Output file: ../robot/ik_based/pkl/008162.pkl
Status: SKIPPED (ALREADY EXISTS) - NO PROCESSING PERFORMED
==================================================

=== SKIPPED (ALREADY EXISTS) - 2025-10-14 22:21:59 ===
File index: 008163
Input file: /data/retarget/locomotion/raw/AMASS_SMPLXG/EKUT/300/PushStandOpen_11_stageii.npz
Output file: ../robot/ik_based/pkl/008163.pkl
Status: SKIPPED (ALREADY EXISTS) - NO PROCESSING PERFORMED
==================================================

=== SKIPPED (ALREADY EXISTS) - 2025-10-14 22:21:59 ===
File index: 008164
Input file: /data/retarget/locomotion/raw/AMASS_SMPLXG/EKUT/300/PushStandOpen_12_stageii.npz
Output file: ../robot/ik_based/pkl/008164.pkl
Status: SKIPPED (ALREADY EXISTS) - NO PROCESSING PERFORMED
==================================================

=== SKIPPED (ALREADY EXISTS) - 2025-10-14 22:21:59 ===
File index: 008165
Input file: /data/retarget/locomotion/raw/AMASS_SMPLXG/EKUT/300/PushStandOpen_13_stageii.npz
Output file: ../robot/ik_based/pkl/008165.pkl
Status: SKIPPED (ALREADY EXISTS) - NO PROCESSING PERFORMED
==================================================

=== SKIPPED (ALREADY EXISTS) - 2025-10-14 22:21:59 ===
File index: 008166
Input file: /data/retarget/locomotion/raw/AMASS_SMPLXG/EKUT/300/PushStandOpen_14_stageii.npz
Output file: ../robot/ik_based/pkl/008166.pkl
Status: SKIPPED (ALREADY EXISTS) - NO PROCESSING PERFORMED
==================================================

=== SKIPPED (ALREADY EXISTS) - 2025-10-14 22:21:59 ===
File index: 008167
Input file: /data/retarget/locomotion/raw/AMASS_SMPLXG/EKUT/300/PushStandOpen_15_stageii.npz
Output file: ../robot/ik_based/pkl/008167.pkl
Status: SKIPPED (ALREADY EXISTS) - NO PROCESSING PERFORMED
==================================================

=== SKIPPED (ALREADY EXISTS) - 2025-10-14 22:21:59 ===
File index: 008168
Input file: /data/retarget/locomotion/raw/AMASS_SMPLXG/EKUT/300/PushStandOpen_16_stageii.npz
Output file: ../robot/ik_based/pkl/008168.pkl
Status: SKIPPED (ALREADY EXISTS) - NO PROCESSING PERFORMED
==================================================

=== SKIPPED (ALREADY EXISTS) - 2025-10-14 22:21:59 ===
File index: 008169
Input file: /data/retarget/locomotion/raw/AMASS_SMPLXG/EKUT/300/PushStandOpen_17_stageii.npz
Output file: ../robot/ik_based/pkl/008169.pkl
Status: SKIPPED (ALREADY EXISTS) - NO PROCESSING PERFORMED
==================================================

=== SKIPPED (ALREADY EXISTS) - 2025-10-14 22:21:59 ===
File index: 008170
Input file: /data/retarget/locomotion/raw/AMASS_SMPLXG/EKUT/300/PushStandOpen_18_stageii.npz
Output file: ../robot/ik_based/pkl/008170.pkl
Status: SKIPPED (ALREADY EXISTS) - NO PROCESSING PERFORMED
==================================================

=== SKIPPED (ALREADY EXISTS) - 2025-10-14 22:21:59 ===
File index: 008171
Input file: /data/retarget/locomotion/raw/AMASS_SMPLXG/EKUT/300/PushStandOpen_19_stageii.npz
Output file: ../robot/ik_based/pkl/008171.pkl
Status: SKIPPED (ALREADY EXISTS) - NO PROCESSING PERFORMED
==================================================

=== SKIPPED (ALREADY EXISTS) - 2025-10-14 22:21:59 ===
File index: 008172
Input file: /data/retarget/locomotion/raw/AMASS_SMPLXG/EKUT/300/PushStandOpen_20_stageii.npz
Output file: ../robot/ik_based/pkl/008172.pkl
Status: SKIPPED (ALREADY EXISTS) - NO PROCESSING PERFORMED
==================================================

=== SKIPPED (ALREADY EXISTS) - 2025-10-14 22:21:59 ===
File index: 008173
Input file: /data/retarget/locomotion/raw/AMASS_SMPLXG/EKUT/300/PushStandOpen_21_stageii.npz
Output file: ../robot/ik_based/pkl/008173.pkl
Status: SKIPPED (ALREADY EXISTS) - NO PROCESSING PERFORMED
==================================================

=== SKIPPED (ALREADY EXISTS) - 2025-10-14 22:21:59 ===
File index: 008174
Input file: /data/retarget/locomotion/raw/AMASS_SMPLXG/EKUT/300/PushStandOpen_22_stageii.npz
Output file: ../robot/ik_based/pkl/008174.pkl
Status: SKIPPED (ALREADY EXISTS) - NO PROCESSING PERFORMED
==================================================

=== SKIPPED (ALREADY EXISTS) - 2025-10-14 22:21:59 ===
File index: 008175
Input file: /data/retarget/locomotion/raw/AMASS_SMPLXG/EKUT/300/PushStandOpen_23_stageii.npz
Output file: ../robot/ik_based/pkl/008175.pkl
Status: SKIPPED (ALREADY EXISTS) - NO PROCESSING PERFORMED
==================================================

=== SKIPPED (ALREADY EXISTS) - 2025-10-14 22:21:59 ===
File index: 008176
Input file: /data/retarget/locomotion/raw/AMASS_SMPLXG/EKUT/300/PushStandOpen_24_stageii.npz
Output file: ../robot/ik_based/pkl/008176.pkl
Status: SKIPPED (ALREADY EXISTS) - NO PROCESSING PERFORMED
==================================================

=== SKIPPED (ALREADY EXISTS) - 2025-10-14 22:21:59 ===
File index: 008177
Input file: /data/retarget/locomotion/raw/AMASS_SMPLXG/EKUT/300/PushStandOpen_25_stageii.npz
Output file: ../robot/ik_based/pkl/008177.pkl
Status: SKIPPED (ALREADY EXISTS) - NO PROCESSING PERFORMED
==================================================

=== SKIPPED (ALREADY EXISTS) - 2025-10-14 22:21:59 ===
File index: 008178
Input file: /data/retarget/locomotion/raw/AMASS_SMPLXG/EKUT/300/PushStandStraightPedar_01_stageii.npz
Output file: ../robot/ik_based/pkl/008178.pkl
Status: SKIPPED (ALREADY EXISTS) - NO PROCESSING PERFORMED
==================================================

=== SKIPPED (ALREADY EXISTS) - 2025-10-14 22:21:59 ===
File index: 008179
Input file: /data/retarget/locomotion/raw/AMASS_SMPLXG/EKUT/300/PushStandStraightPedar_02_stageii.npz
Output file: ../robot/ik_based/pkl/008179.pkl
Status: SKIPPED (ALREADY EXISTS) - NO PROCESSING PERFORMED
==================================================

=== SKIPPED (ALREADY EXISTS) - 2025-10-14 22:21:59 ===
File index: 008180
Input file: /data/retarget/locomotion/raw/AMASS_SMPLXG/EKUT/300/PushStandStraightPedar_03_stageii.npz
Output file: ../robot/ik_based/pkl/008180.pkl
Status: SKIPPED (ALREADY EXISTS) - NO PROCESSING PERFORMED
==================================================

=== SKIPPED (ALREADY EXISTS) - 2025-10-14 22:21:59 ===
File index: 008181
Input file: /data/retarget/locomotion/raw/AMASS_SMPLXG/EKUT/300/PushStandStraightPedar_04_stageii.npz
Output file: ../robot/ik_based/pkl/008181.pkl
Status: SKIPPED (ALREADY EXISTS) - NO PROCESSING PERFORMED
==================================================

=== SKIPPED (ALREADY EXISTS) - 2025-10-14 22:21:59 ===
File index: 008182
Input file: /data/retarget/locomotion/raw/AMASS_SMPLXG/EKUT/300/PushStandStraightPedar_05_stageii.npz
Output file: ../robot/ik_based/pkl/008182.pkl
Status: SKIPPED (ALREADY EXISTS) - NO PROCESSING PERFORMED
==================================================

=== SKIPPED (ALREADY EXISTS) - 2025-10-14 22:21:59 ===
File index: 008183
Input file: /data/retarget/locomotion/raw/AMASS_SMPLXG/EKUT/300/PushStandStraightPedar_06_stageii.npz
Output file: ../robot/ik_based/pkl/008183.pkl
Status: SKIPPED (ALREADY EXISTS) - NO PROCESSING PERFORMED
==================================================

=== SKIPPED (ALREADY EXISTS) - 2025-10-14 22:21:59 ===
File index: 008184
Input file: /data/retarget/locomotion/raw/AMASS_SMPLXG/EKUT/300/PushStandStraightPedar_07_stageii.npz
Output file: ../robot/ik_based/pkl/008184.pkl
Status: SKIPPED (ALREADY EXISTS) - NO PROCESSING PERFORMED
==================================================

=== SKIPPED (ALREADY EXISTS) - 2025-10-14 22:21:59 ===
File index: 008185
Input file: /data/retarget/locomotion/raw/AMASS_SMPLXG/EKUT/300/PushStandStraightPedar_08_stageii.npz
Output file: ../robot/ik_based/pkl/008185.pkl
Status: SKIPPED (ALREADY EXISTS) - NO PROCESSING PERFORMED
==================================================

=== SKIPPED (ALREADY EXISTS) - 2025-10-14 22:21:59 ===
File index: 008186
Input file: /data/retarget/locomotion/raw/AMASS_SMPLXG/EKUT/300/PushStandStraightPedar_09_stageii.npz
Output file: ../robot/ik_based/pkl/008186.pkl
Status: SKIPPED (ALREADY EXISTS) - NO PROCESSING PERFORMED
==================================================

=== SKIPPED (ALREADY EXISTS) - 2025-10-14 22:21:59 ===
File index: 008187
Input file: /data/retarget/locomotion/raw/AMASS_SMPLXG/EKUT/300/PushStandStraightPedar_10_stageii.npz
Output file: ../robot/ik_based/pkl/008187.pkl
Status: SKIPPED (ALREADY EXISTS) - NO PROCESSING PERFORMED
==================================================

=== SKIPPED (ALREADY EXISTS) - 2025-10-14 22:21:59 ===
File index: 008188
Input file: /data/retarget/locomotion/raw/AMASS_SMPLXG/EKUT/300/PushStandStraight_01_stageii.npz
Output file: ../robot/ik_based/pkl/008188.pkl
Status: SKIPPED (ALREADY EXISTS) - NO PROCESSING PERFORMED
==================================================

=== SKIPPED (ALREADY EXISTS) - 2025-10-14 22:21:59 ===
File index: 008189
Input file: /data/retarget/locomotion/raw/AMASS_SMPLXG/EKUT/300/PushStandStraight_02_stageii.npz
Output file: ../robot/ik_based/pkl/008189.pkl
Status: SKIPPED (ALREADY EXISTS) - NO PROCESSING PERFORMED
==================================================

=== SKIPPED (ALREADY EXISTS) - 2025-10-14 22:21:59 ===
File index: 008190
Input file: /data/retarget/locomotion/raw/AMASS_SMPLXG/EKUT/300/PushStandStraight_03_stageii.npz
Output file: ../robot/ik_based/pkl/008190.pkl
Status: SKIPPED (ALREADY EXISTS) - NO PROCESSING PERFORMED
==================================================

=== SKIPPED (ALREADY EXISTS) - 2025-10-14 22:21:59 ===
File index: 008191
Input file: /data/retarget/locomotion/raw/AMASS_SMPLXG/EKUT/300/PushStandStraight_04_stageii.npz
Output file: ../robot/ik_based/pkl/008191.pkl
Status: SKIPPED (ALREADY EXISTS) - NO PROCESSING PERFORMED
==================================================

=== SKIPPED (ALREADY EXISTS) - 2025-10-14 22:21:59 ===
File index: 008192
Input file: /data/retarget/locomotion/raw/AMASS_SMPLXG/EKUT/300/PushStandStraight_05_stageii.npz
Output file: ../robot/ik_based/pkl/008192.pkl
Status: SKIPPED (ALREADY EXISTS) - NO PROCESSING PERFORMED
==================================================

=== SKIPPED (ALREADY EXISTS) - 2025-10-14 22:21:59 ===
File index: 008193
Input file: /data/retarget/locomotion/raw/AMASS_SMPLXG/EKUT/300/PushStandStraight_06_stageii.npz
Output file: ../robot/ik_based/pkl/008193.pkl
Status: SKIPPED (ALREADY EXISTS) - NO PROCESSING PERFORMED
==================================================

=== SKIPPED (ALREADY EXISTS) - 2025-10-14 22:21:59 ===
File index: 008194
Input file: /data/retarget/locomotion/raw/AMASS_SMPLXG/EKUT/300/PushStandStraight_07_stageii.npz
Output file: ../robot/ik_based/pkl/008194.pkl
Status: SKIPPED (ALREADY EXISTS) - NO PROCESSING PERFORMED
==================================================

=== SKIPPED (ALREADY EXISTS) - 2025-10-14 22:21:59 ===
File index: 008195
Input file: /data/retarget/locomotion/raw/AMASS_SMPLXG/EKUT/300/PushStandStraight_08_stageii.npz
Output file: ../robot/ik_based/pkl/008195.pkl
Status: SKIPPED (ALREADY EXISTS) - NO PROCESSING PERFORMED
==================================================

=== SKIPPED (ALREADY EXISTS) - 2025-10-14 22:21:59 ===
File index: 008196
Input file: /data/retarget/locomotion/raw/AMASS_SMPLXG/EKUT/300/PushStandStraight_09_stageii.npz
Output file: ../robot/ik_based/pkl/008196.pkl
Status: SKIPPED (ALREADY EXISTS) - NO PROCESSING PERFORMED
==================================================

=== SKIPPED (ALREADY EXISTS) - 2025-10-14 22:21:59 ===
File index: 008197
Input file: /data/retarget/locomotion/raw/AMASS_SMPLXG/EKUT/300/PushStandStraight_10_stageii.npz
Output file: ../robot/ik_based/pkl/008197.pkl
Status: SKIPPED (ALREADY EXISTS) - NO PROCESSING PERFORMED
==================================================

=== SKIPPED (ALREADY EXISTS) - 2025-10-14 22:21:59 ===
File index: 008198
Input file: /data/retarget/locomotion/raw/AMASS_SMPLXG/EKUT/300/PushStandTransPedar_01_stageii.npz
Output file: ../robot/ik_based/pkl/008198.pkl
Status: SKIPPED (ALREADY EXISTS) - NO PROCESSING PERFORMED
==================================================

=== SKIPPED (ALREADY EXISTS) - 2025-10-14 22:21:59 ===
File index: 008199
Input file: /data/retarget/locomotion/raw/AMASS_SMPLXG/EKUT/300/PushStandTransPedar_02_stageii.npz
Output file: ../robot/ik_based/pkl/008199.pkl
Status: SKIPPED (ALREADY EXISTS) - NO PROCESSING PERFORMED
==================================================

=== SKIPPED (ALREADY EXISTS) - 2025-10-14 22:21:59 ===
File index: 008200
Input file: /data/retarget/locomotion/raw/AMASS_SMPLXG/EKUT/300/PushStandTransPedar_03_stageii.npz
Output file: ../robot/ik_based/pkl/008200.pkl
Status: SKIPPED (ALREADY EXISTS) - NO PROCESSING PERFORMED
==================================================

=== SKIPPED (ALREADY EXISTS) - 2025-10-14 22:21:59 ===
File index: 008201
Input file: /data/retarget/locomotion/raw/AMASS_SMPLXG/EKUT/300/PushStandTransPedar_04_stageii.npz
Output file: ../robot/ik_based/pkl/008201.pkl
Status: SKIPPED (ALREADY EXISTS) - NO PROCESSING PERFORMED
==================================================

=== SKIPPED (ALREADY EXISTS) - 2025-10-14 22:21:59 ===
File index: 008202
Input file: /data/retarget/locomotion/raw/AMASS_SMPLXG/EKUT/300/PushStandTransPedar_05_stageii.npz
Output file: ../robot/ik_based/pkl/008202.pkl
Status: SKIPPED (ALREADY EXISTS) - NO PROCESSING PERFORMED
==================================================

=== SKIPPED (ALREADY EXISTS) - 2025-10-14 22:21:59 ===
File index: 008203
Input file: /data/retarget/locomotion/raw/AMASS_SMPLXG/EKUT/300/PushStandTransPedar_06_stageii.npz
Output file: ../robot/ik_based/pkl/008203.pkl
Status: SKIPPED (ALREADY EXISTS) - NO PROCESSING PERFORMED
==================================================

=== SKIPPED (ALREADY EXISTS) - 2025-10-14 22:21:59 ===
File index: 008204
Input file: /data/retarget/locomotion/raw/AMASS_SMPLXG/EKUT/300/PushStandTransPedar_07_stageii.npz
Output file: ../robot/ik_based/pkl/008204.pkl
Status: SKIPPED (ALREADY EXISTS) - NO PROCESSING PERFORMED
==================================================

=== SKIPPED (ALREADY EXISTS) - 2025-10-14 22:21:59 ===
File index: 008205
Input file: /data/retarget/locomotion/raw/AMASS_SMPLXG/EKUT/300/PushStandTransPedar_08_stageii.npz
Output file: ../robot/ik_based/pkl/008205.pkl
Status: SKIPPED (ALREADY EXISTS) - NO PROCESSING PERFORMED
==================================================

=== SKIPPED (ALREADY EXISTS) - 2025-10-14 22:21:59 ===
File index: 008206
Input file: /data/retarget/locomotion/raw/AMASS_SMPLXG/EKUT/300/PushStandTransPedar_09_stageii.npz
Output file: ../robot/ik_based/pkl/008206.pkl
Status: SKIPPED (ALREADY EXISTS) - NO PROCESSING PERFORMED
==================================================

=== SKIPPED (ALREADY EXISTS) - 2025-10-14 22:21:59 ===
File index: 008207
Input file: /data/retarget/locomotion/raw/AMASS_SMPLXG/EKUT/300/PushStandTransPedar_10_stageii.npz
Output file: ../robot/ik_based/pkl/008207.pkl
Status: SKIPPED (ALREADY EXISTS) - NO PROCESSING PERFORMED
==================================================

=== SKIPPED (ALREADY EXISTS) - 2025-10-14 22:21:59 ===
File index: 008208
Input file: /data/retarget/locomotion/raw/AMASS_SMPLXG/EKUT/300/PushStandTrans_01_stageii.npz
Output file: ../robot/ik_based/pkl/008208.pkl
Status: SKIPPED (ALREADY EXISTS) - NO PROCESSING PERFORMED
==================================================

=== SKIPPED (ALREADY EXISTS) - 2025-10-14 22:21:59 ===
File index: 008209
Input file: /data/retarget/locomotion/raw/AMASS_SMPLXG/EKUT/300/PushStandTrans_02_stageii.npz
Output file: ../robot/ik_based/pkl/008209.pkl
Status: SKIPPED (ALREADY EXISTS) - NO PROCESSING PERFORMED
==================================================

=== SKIPPED (ALREADY EXISTS) - 2025-10-14 22:21:59 ===
File index: 008210
Input file: /data/retarget/locomotion/raw/AMASS_SMPLXG/EKUT/300/PushStandTrans_03_stageii.npz
Output file: ../robot/ik_based/pkl/008210.pkl
Status: SKIPPED (ALREADY EXISTS) - NO PROCESSING PERFORMED
==================================================

=== SKIPPED (ALREADY EXISTS) - 2025-10-14 22:21:59 ===
File index: 008211
Input file: /data/retarget/locomotion/raw/AMASS_SMPLXG/EKUT/300/PushStandTrans_04_stageii.npz
Output file: ../robot/ik_based/pkl/008211.pkl
Status: SKIPPED (ALREADY EXISTS) - NO PROCESSING PERFORMED
==================================================

=== SKIPPED (ALREADY EXISTS) - 2025-10-14 22:21:59 ===
File index: 008212
Input file: /data/retarget/locomotion/raw/AMASS_SMPLXG/EKUT/300/PushStandTrans_05_stageii.npz
Output file: ../robot/ik_based/pkl/008212.pkl
Status: SKIPPED (ALREADY EXISTS) - NO PROCESSING PERFORMED
==================================================

=== SKIPPED (ALREADY EXISTS) - 2025-10-14 22:21:59 ===
File index: 008213
Input file: /data/retarget/locomotion/raw/AMASS_SMPLXG/EKUT/300/PushStandTrans_06_stageii.npz
Output file: ../robot/ik_based/pkl/008213.pkl
Status: SKIPPED (ALREADY EXISTS) - NO PROCESSING PERFORMED
==================================================

=== SKIPPED (ALREADY EXISTS) - 2025-10-14 22:21:59 ===
File index: 008214
Input file: /data/retarget/locomotion/raw/AMASS_SMPLXG/EKUT/300/PushStandTrans_07_stageii.npz
Output file: ../robot/ik_based/pkl/008214.pkl
Status: SKIPPED (ALREADY EXISTS) - NO PROCESSING PERFORMED
==================================================

=== SKIPPED (ALREADY EXISTS) - 2025-10-14 22:21:59 ===
File index: 008215
Input file: /data/retarget/locomotion/raw/AMASS_SMPLXG/EKUT/300/PushStandTrans_08_stageii.npz
Output file: ../robot/ik_based/pkl/008215.pkl
Status: SKIPPED (ALREADY EXISTS) - NO PROCESSING PERFORMED
==================================================

=== SKIPPED (ALREADY EXISTS) - 2025-10-14 22:21:59 ===
File index: 008216
Input file: /data/retarget/locomotion/raw/AMASS_SMPLXG/EKUT/300/PushStandTrans_09_stageii.npz
Output file: ../robot/ik_based/pkl/008216.pkl
Status: SKIPPED (ALREADY EXISTS) - NO PROCESSING PERFORMED
==================================================

=== SKIPPED (ALREADY EXISTS) - 2025-10-14 22:21:59 ===
File index: 008217
Input file: /data/retarget/locomotion/raw/AMASS_SMPLXG/EKUT/300/PushStandTrans_10_stageii.npz
Output file: ../robot/ik_based/pkl/008217.pkl
Status: SKIPPED (ALREADY EXISTS) - NO PROCESSING PERFORMED
==================================================

=== SKIPPED (ALREADY EXISTS) - 2025-10-14 22:21:59 ===
File index: 008218
Input file: /data/retarget/locomotion/raw/AMASS_SMPLXG/EKUT/300/Tpose_stageii.npz
Output file: ../robot/ik_based/pkl/008218.pkl
Status: SKIPPED (ALREADY EXISTS) - NO PROCESSING PERFORMED
==================================================

=== ERROR LOG - 2025-10-14 22:22:01 ===
Input file: /data/retarget/locomotion/raw/AMASS_SMPLXG/EKUT/300/male_stagei.npz
Output file: ../robot/ik_based/pkl/008219.pkl
Robot type: unitree_g1
Processing time: 1.21 seconds
Error message: 'pose_body is not a file in the archive'
Error type: KeyError
==================================================

=== FILE FAILURE - 2025-10-14 22:22:01 ===
File index: 008219
File number: 220/9757
Input file: /data/retarget/locomotion/raw/AMASS_SMPLXG/EKUT/300/male_stagei.npz
Output file: ../robot/ik_based/pkl/008219.pkl
Processing time: 1.21 seconds
Total file time: 1.36 seconds
Status: FAILED
==================================================

=== SKIPPED (ALREADY EXISTS) - 2025-10-14 22:22:01 ===
File index: 008220
Input file: /data/retarget/locomotion/raw/AMASS_SMPLXG/Eyes_Japan_Dataset/aita/accident-02-dodge_fast-aita_stageii.npz
Output file: ../robot/ik_based/pkl/008220.pkl
Status: SKIPPED (ALREADY EXISTS) - NO PROCESSING PERFORMED
==================================================

=== SKIPPED (ALREADY EXISTS) - 2025-10-14 22:22:01 ===
File index: 008221
Input file: /data/retarget/locomotion/raw/AMASS_SMPLXG/Eyes_Japan_Dataset/aita/accident-03-damage_head-aita_stageii.npz
Output file: ../robot/ik_based/pkl/008221.pkl
Status: SKIPPED (ALREADY EXISTS) - NO PROCESSING PERFORMED
==================================================

=== SKIPPED (ALREADY EXISTS) - 2025-10-14 22:22:01 ===
File index: 008222
Input file: /data/retarget/locomotion/raw/AMASS_SMPLXG/Eyes_Japan_Dataset/aita/accident-04-damage_right_leg-aita_stageii.npz
Output file: ../robot/ik_based/pkl/008222.pkl
Status: SKIPPED (ALREADY EXISTS) - NO PROCESSING PERFORMED
==================================================

=== SKIPPED (ALREADY EXISTS) - 2025-10-14 22:22:01 ===
File index: 008223
Input file: /data/retarget/locomotion/raw/AMASS_SMPLXG/Eyes_Japan_Dataset/aita/accident-06-damage_left_leg-aita_stageii.npz
Output file: ../robot/ik_based/pkl/008223.pkl
Status: SKIPPED (ALREADY EXISTS) - NO PROCESSING PERFORMED
==================================================

=== SKIPPED (ALREADY EXISTS) - 2025-10-14 22:22:01 ===
File index: 008224
Input file: /data/retarget/locomotion/raw/AMASS_SMPLXG/Eyes_Japan_Dataset/aita/accident-08-damage_rightfoot-aita_stageii.npz
Output file: ../robot/ik_based/pkl/008224.pkl
Status: SKIPPED (ALREADY EXISTS) - NO PROCESSING PERFORMED
==================================================

=== SKIPPED (ALREADY EXISTS) - 2025-10-14 22:22:01 ===
File index: 008225
Input file: /data/retarget/locomotion/raw/AMASS_SMPLXG/Eyes_Japan_Dataset/aita/accident-09-damage_leftfoot-aita_stageii.npz
Output file: ../robot/ik_based/pkl/008225.pkl
Status: SKIPPED (ALREADY EXISTS) - NO PROCESSING PERFORMED
==================================================

=== SKIPPED (ALREADY EXISTS) - 2025-10-14 22:22:01 ===
File index: 008226
Input file: /data/retarget/locomotion/raw/AMASS_SMPLXG/Eyes_Japan_Dataset/aita/accident-10-spasm-aita_stageii.npz
Output file: ../robot/ik_based/pkl/008226.pkl
Status: SKIPPED (ALREADY EXISTS) - NO PROCESSING PERFORMED
==================================================

=== SKIPPED (ALREADY EXISTS) - 2025-10-14 22:22:01 ===
File index: 008227
Input file: /data/retarget/locomotion/raw/AMASS_SMPLXG/Eyes_Japan_Dataset/aita/accident-12-twist_foot-aita_stageii.npz
Output file: ../robot/ik_based/pkl/008227.pkl
Status: SKIPPED (ALREADY EXISTS) - NO PROCESSING PERFORMED
==================================================

=== SKIPPED (ALREADY EXISTS) - 2025-10-14 22:22:01 ===
File index: 008228
Input file: /data/retarget/locomotion/raw/AMASS_SMPLXG/Eyes_Japan_Dataset/aita/accident-13-damage_back-aita_stageii.npz
Output file: ../robot/ik_based/pkl/008228.pkl
Status: SKIPPED (ALREADY EXISTS) - NO PROCESSING PERFORMED
==================================================

=== SKIPPED (ALREADY EXISTS) - 2025-10-14 22:22:01 ===
File index: 008229
Input file: /data/retarget/locomotion/raw/AMASS_SMPLXG/Eyes_Japan_Dataset/aita/accident-14-dodge_turn_down-aita_stageii.npz
Output file: ../robot/ik_based/pkl/008229.pkl
Status: SKIPPED (ALREADY EXISTS) - NO PROCESSING PERFORMED
==================================================

=== SKIPPED (ALREADY EXISTS) - 2025-10-14 22:22:01 ===
File index: 008230
Input file: /data/retarget/locomotion/raw/AMASS_SMPLXG/Eyes_Japan_Dataset/aita/accident-15-knock_head_2-aita_stageii.npz
Output file: ../robot/ik_based/pkl/008230.pkl
Status: SKIPPED (ALREADY EXISTS) - NO PROCESSING PERFORMED
==================================================

=== SKIPPED (ALREADY EXISTS) - 2025-10-14 22:22:01 ===
File index: 008231
Input file: /data/retarget/locomotion/raw/AMASS_SMPLXG/Eyes_Japan_Dataset/aita/gesture_etc-03-set_3-aita_stageii.npz
Output file: ../robot/ik_based/pkl/008231.pkl
Status: SKIPPED (ALREADY EXISTS) - NO PROCESSING PERFORMED
==================================================

=== SKIPPED (ALREADY EXISTS) - 2025-10-14 22:22:01 ===
File index: 008232
Input file: /data/retarget/locomotion/raw/AMASS_SMPLXG/Eyes_Japan_Dataset/aita/gesture_etc-04-set_4-aita_stageii.npz
Output file: ../robot/ik_based/pkl/008232.pkl
Status: SKIPPED (ALREADY EXISTS) - NO PROCESSING PERFORMED
==================================================

=== SKIPPED (ALREADY EXISTS) - 2025-10-14 22:22:01 ===
File index: 008233
Input file: /data/retarget/locomotion/raw/AMASS_SMPLXG/Eyes_Japan_Dataset/aita/gesture_etc-05-touch_nose-aita_stageii.npz
Output file: ../robot/ik_based/pkl/008233.pkl
Status: SKIPPED (ALREADY EXISTS) - NO PROCESSING PERFORMED
==================================================

=== SKIPPED (ALREADY EXISTS) - 2025-10-14 22:22:01 ===
File index: 008234
Input file: /data/retarget/locomotion/raw/AMASS_SMPLXG/Eyes_Japan_Dataset/aita/gesture_etc-06-jiggle_knee-aita_stageii.npz
Output file: ../robot/ik_based/pkl/008234.pkl
Status: SKIPPED (ALREADY EXISTS) - NO PROCESSING PERFORMED
==================================================

=== SKIPPED (ALREADY EXISTS) - 2025-10-14 22:22:01 ===
File index: 008235
Input file: /data/retarget/locomotion/raw/AMASS_SMPLXG/Eyes_Japan_Dataset/aita/gesture_etc-07-over_stretch-aita_stageii.npz
Output file: ../robot/ik_based/pkl/008235.pkl
Status: SKIPPED (ALREADY EXISTS) - NO PROCESSING PERFORMED
==================================================

=== SKIPPED (ALREADY EXISTS) - 2025-10-14 22:22:01 ===
File index: 008236
Input file: /data/retarget/locomotion/raw/AMASS_SMPLXG/Eyes_Japan_Dataset/aita/gesture_etc-08-stretch-aita_stageii.npz
Output file: ../robot/ik_based/pkl/008236.pkl
Status: SKIPPED (ALREADY EXISTS) - NO PROCESSING PERFORMED
==================================================

=== SKIPPED (ALREADY EXISTS) - 2025-10-14 22:22:01 ===
File index: 008237
Input file: /data/retarget/locomotion/raw/AMASS_SMPLXG/Eyes_Japan_Dataset/aita/gesture_etc-09-scratch-aita_stageii.npz
Output file: ../robot/ik_based/pkl/008237.pkl
Status: SKIPPED (ALREADY EXISTS) - NO PROCESSING PERFORMED
==================================================

=== SKIPPED (ALREADY EXISTS) - 2025-10-14 22:22:01 ===
File index: 008238
Input file: /data/retarget/locomotion/raw/AMASS_SMPLXG/Eyes_Japan_Dataset/aita/gesture_etc-10-snip_nail-aita_stageii.npz
Output file: ../robot/ik_based/pkl/008238.pkl
Status: SKIPPED (ALREADY EXISTS) - NO PROCESSING PERFORMED
==================================================

=== SKIPPED (ALREADY EXISTS) - 2025-10-14 22:22:01 ===
File index: 008239
Input file: /data/retarget/locomotion/raw/AMASS_SMPLXG/Eyes_Japan_Dataset/aita/gesture_etc-11-hold_arms-aita_stageii.npz
Output file: ../robot/ik_based/pkl/008239.pkl
Status: SKIPPED (ALREADY EXISTS) - NO PROCESSING PERFORMED
==================================================

=== SKIPPED (ALREADY EXISTS) - 2025-10-14 22:22:01 ===
File index: 008240
Input file: /data/retarget/locomotion/raw/AMASS_SMPLXG/Eyes_Japan_Dataset/aita/gesture_etc-14-apologize-aita_stageii.npz
Output file: ../robot/ik_based/pkl/008240.pkl
Status: SKIPPED (ALREADY EXISTS) - NO PROCESSING PERFORMED
==================================================

=== SKIPPED (ALREADY EXISTS) - 2025-10-14 22:22:01 ===
File index: 008241
Input file: /data/retarget/locomotion/raw/AMASS_SMPLXG/Eyes_Japan_Dataset/aita/gesture_etc-16-dryer-aita_stageii.npz
Output file: ../robot/ik_based/pkl/008241.pkl
Status: SKIPPED (ALREADY EXISTS) - NO PROCESSING PERFORMED
==================================================

=== SKIPPED (ALREADY EXISTS) - 2025-10-14 22:22:01 ===
File index: 008242
Input file: /data/retarget/locomotion/raw/AMASS_SMPLXG/Eyes_Japan_Dataset/aita/gesture_etc-17-drink-aita_stageii.npz
Output file: ../robot/ik_based/pkl/008242.pkl
[...]
Compile with `TORCH_USE_CUDA_DSA` to enable device-side assertions.

Error type: AcceleratorError
==================================================

=== FILE FAILURE - 2025-10-15 01:26:03 ===
File index: 008869
File number: 870/9757
Input file: /data/retarget/locomotion/raw/AMASS_SMPLXG/Eyes_Japan_Dataset/shiono/throw_toss-09-shotput-shiono_stageii.npz
Output file: ../robot/ik_based/pkl/008869.pkl
Processing time: 134.50 seconds
Total file time: 135.20 seconds
Status: FAILED
==================================================

=== ERROR LOG - 2025-10-15 01:28:02 ===
Input file: /data/retarget/locomotion/raw/AMASS_SMPLXG/Eyes_Japan_Dataset/shiono/throw_toss-10-javelin-shiono_stageii.npz
Output file: ../robot/ik_based/pkl/008870.pkl
Robot type: unitree_g1
Processing time: 119.31 seconds

STEP-BY-STEP TIMING (FAILED):
  Load Smplx: 36.61s
  Align Fps: 10.31s
  Init Retarget: 0.75s
  Init Visualization: 0.00s
  Process Frames: 69.80s (avg: 0.082s/frame)
  Convert Arrays: 0.00s
Error message: CUDA error: out of memory
CUDA kernel errors might be asynchronously reported at some other API call, so the stacktrace below might be incorrect.
For debugging consider passing CUDA_LAUNCH_BLOCKING=1
Compile with `TORCH_USE_CUDA_DSA` to enable device-side assertions.

Error type: AcceleratorError
==================================================

=== FILE FAILURE - 2025-10-15 01:28:03 ===
File index: 008870
File number: 871/9757
Input file: /data/retarget/locomotion/raw/AMASS_SMPLXG/Eyes_Japan_Dataset/shiono/throw_toss-10-javelin-shiono_stageii.npz
Output file: ../robot/ik_based/pkl/008870.pkl
Processing time: 119.31 seconds
Total file time: 120.07 seconds
Status: FAILED
==================================================

=== SKIPPED (ALREADY EXISTS) - 2025-10-15 01:28:03 ===
File index: 008871
Input file: /data/retarget/locomotion/raw/AMASS_SMPLXG/Eyes_Japan_Dataset/shiono/throw_toss-11-disc-shiono_stageii.npz
Output file: ../robot/ik_based/pkl/008871.pkl
Status: SKIPPED (ALREADY EXISTS) - NO PROCESSING PERFORMED
==================================================

=== ERROR LOG - 2025-10-15 01:29:58 ===
Input file: /data/retarget/locomotion/raw/AMASS_SMPLXG/Eyes_Japan_Dataset/shiono/throw_toss-13-pass_to_right_light-shiono_stageii.npz
Output file: ../robot/ik_based/pkl/008872.pkl
Robot type: unitree_g1
Processing time: 114.36 seconds

STEP-BY-STEP TIMING (FAILED):
  Load Smplx: 36.39s
  Align Fps: 12.20s
  Init Retarget: 0.42s
  Init Visualization: 0.00s
  Process Frames: 64.06s (avg: 0.075s/frame)
  Convert Arrays: 0.01s
Error message: CUDA error: out of memory
CUDA kernel errors might be asynchronously reported at some other API call, so the stacktrace below might be incorrect.
For debugging consider passing CUDA_LAUNCH_BLOCKING=1
Compile with `TORCH_USE_CUDA_DSA` to enable device-side assertions.

Error type: AcceleratorError
==================================================

=== FILE FAILURE - 2025-10-15 01:29:59 ===
File index: 008872
File number: 873/9757
Input file: /data/retarget/locomotion/raw/AMASS_SMPLXG/Eyes_Japan_Dataset/shiono/throw_toss-13-pass_to_right_light-shiono_stageii.npz
Output file: ../robot/ik_based/pkl/008872.pkl
Processing time: 114.36 seconds
Total file time: 115.40 seconds
Status: FAILED
==================================================

=== ERROR LOG - 2025-10-15 01:32:00 ===
Input file: /data/retarget/locomotion/raw/AMASS_SMPLXG/Eyes_Japan_Dataset/shiono/throw_toss-14-pass_to_right_heavy-shiono_stageii.npz
Output file: ../robot/ik_based/pkl/008873.pkl
Robot type: unitree_g1
Processing time: 121.02 seconds

STEP-BY-STEP TIMING (FAILED):
  Load Smplx: 25.06s
  Align Fps: 13.90s
  Init Retarget: 0.34s
  Init Visualization: 0.00s
  Process Frames: 80.46s (avg: 0.095s/frame)
  Convert Arrays: 0.00s
Error message: CUDA error: out of memory
CUDA kernel errors might be asynchronously reported at some other API call, so the stacktrace below might be incorrect.
For debugging consider passing CUDA_LAUNCH_BLOCKING=1
Compile with `TORCH_USE_CUDA_DSA` to enable device-side assertions.

Error type: AcceleratorError
==================================================

=== FILE FAILURE - 2025-10-15 01:32:01 ===
File index: 008873
File number: 874/9757
Input file: /data/retarget/locomotion/raw/AMASS_SMPLXG/Eyes_Japan_Dataset/shiono/throw_toss-14-pass_to_right_heavy-shiono_stageii.npz
Output file: ../robot/ik_based/pkl/008873.pkl
Processing time: 121.02 seconds
Total file time: 121.99 seconds
Status: FAILED
==================================================

=== SKIPPED (ALREADY EXISTS) - 2025-10-15 01:32:01 ===
File index: 008874
Input file: /data/retarget/locomotion/raw/AMASS_SMPLXG/Eyes_Japan_Dataset/shiono/throw_toss-19-pass_to_front_light-shiono_stageii.npz
Output file: ../robot/ik_based/pkl/008874.pkl
Status: SKIPPED (ALREADY EXISTS) - NO PROCESSING PERFORMED
==================================================

=== ERROR LOG - 2025-10-15 01:33:47 ===
Input file: /data/retarget/locomotion/raw/AMASS_SMPLXG/Eyes_Japan_Dataset/shiono/turn-01-call-shiono_stageii.npz
Output file: ../robot/ik_based/pkl/008875.pkl
Robot type: unitree_g1
Processing time: 106.58 seconds

STEP-BY-STEP TIMING (FAILED):
  Load Smplx: 26.06s
  Align Fps: 15.02s
  Init Retarget: 1.01s
  Init Visualization: 0.00s
  Process Frames: 64.33s (avg: 0.071s/frame)
  Convert Arrays: 0.01s
Error message: CUDA error: out of memory
CUDA kernel errors might be asynchronously reported at some other API call, so the stacktrace below might be incorrect.
For debugging consider passing CUDA_LAUNCH_BLOCKING=1
Compile with `TORCH_USE_CUDA_DSA` to enable device-side assertions.

Error type: AcceleratorError
==================================================

=== FILE FAILURE - 2025-10-15 01:33:48 ===
File index: 008875
File number: 876/9757
Input file: /data/retarget/locomotion/raw/AMASS_SMPLXG/Eyes_Japan_Dataset/shiono/turn-01-call-shiono_stageii.npz
Output file: ../robot/ik_based/pkl/008875.pkl
Processing time: 106.58 seconds
Total file time: 107.66 seconds
Status: FAILED
==================================================

=== ERROR LOG - 2025-10-15 01:35:32 ===
Input file: /data/retarget/locomotion/raw/AMASS_SMPLXG/Eyes_Japan_Dataset/shiono/turn-02-look_around-shiono_stageii.npz
Output file: ../robot/ik_based/pkl/008876.pkl
Robot type: unitree_g1
Processing time: 103.69 seconds

STEP-BY-STEP TIMING (FAILED):
  Load Smplx: 23.65s
  Align Fps: 13.11s
  Init Retarget: 0.55s
  Init Visualization: 0.00s
  Process Frames: 65.94s (avg: 0.073s/frame)
  Convert Arrays: 0.02s
Error message: CUDA error: out of memory
CUDA kernel errors might be asynchronously reported at some other API call, so the stacktrace below might be incorrect.
For debugging consider passing CUDA_LAUNCH_BLOCKING=1
Compile with `TORCH_USE_CUDA_DSA` to enable device-side assertions.

Error type: AcceleratorError
==================================================

=== FILE FAILURE - 2025-10-15 01:35:33 ===
File index: 008876
File number: 877/9757
Input file: /data/retarget/locomotion/raw/AMASS_SMPLXG/Eyes_Japan_Dataset/shiono/turn-02-look_around-shiono_stageii.npz
Output file: ../robot/ik_based/pkl/008876.pkl
Processing time: 103.69 seconds
Total file time: 104.99 seconds
Status: FAILED
==================================================

=== ERROR LOG - 2025-10-15 01:37:27 ===
Input file: /data/retarget/locomotion/raw/AMASS_SMPLXG/Eyes_Japan_Dataset/shiono/turn-03-look_at-shiono_stageii.npz
Output file: ../robot/ik_based/pkl/008877.pkl
Robot type: unitree_g1
Processing time: 112.86 seconds

STEP-BY-STEP TIMING (FAILED):
  Load Smplx: 40.42s
  Align Fps: 18.04s
  Init Retarget: 1.49s
  Init Visualization: 0.00s
  Process Frames: 52.41s (avg: 0.058s/frame)
  Convert Arrays: 0.01s
Error message: CUDA error: out of memory
CUDA kernel errors might be asynchronously reported at some other API call, so the stacktrace below might be incorrect.
For debugging consider passing CUDA_LAUNCH_BLOCKING=1
Compile with `TORCH_USE_CUDA_DSA` to enable device-side assertions.

Error type: AcceleratorError
==================================================

=== FILE FAILURE - 2025-10-15 01:37:27 ===
File index: 008877
File number: 878/9757
Input file: /data/retarget/locomotion/raw/AMASS_SMPLXG/Eyes_Japan_Dataset/shiono/turn-03-look_at-shiono_stageii.npz
Output file: ../robot/ik_based/pkl/008877.pkl
Processing time: 112.86 seconds
Total file time: 113.96 seconds
Status: FAILED
==================================================

=== ERROR LOG - 2025-10-15 01:39:45 ===
Input file: /data/retarget/locomotion/raw/AMASS_SMPLXG/Eyes_Japan_Dataset/shiono/walk-02-drank-shiono_stageii.npz
Output file: ../robot/ik_based/pkl/008878.pkl
Robot type: unitree_g1
Processing time: 138.13 seconds

STEP-BY-STEP TIMING (FAILED):
  Load Smplx: 44.43s
  Align Fps: 20.51s
  Init Retarget: 1.71s
  Init Visualization: 0.00s
  Process Frames: 70.05s (avg: 0.082s/frame)
  Convert Arrays: 0.00s
Error message: CUDA error: out of memory
CUDA kernel errors might be asynchronously reported at some other API call, so the stacktrace below might be incorrect.
For debugging consider passing CUDA_LAUNCH_BLOCKING=1
Compile with `TORCH_USE_CUDA_DSA` to enable device-side assertions.

Error type: AcceleratorError
==================================================

=== FILE FAILURE - 2025-10-15 01:39:46 ===
File index: 008878
File number: 879/9757
Input file: /data/retarget/locomotion/raw/AMASS_SMPLXG/Eyes_Japan_Dataset/shiono/walk-02-drank-shiono_stageii.npz
Output file: ../robot/ik_based/pkl/008878.pkl
Processing time: 138.13 seconds
Total file time: 138.94 seconds
Status: FAILED
==================================================

=== SKIPPED (ALREADY EXISTS) - 2025-10-15 01:39:46 ===
File index: 008879
Input file: /data/retarget/locomotion/raw/AMASS_SMPLXG/Eyes_Japan_Dataset/shiono/walk-03-sneak-shiono_stageii.npz
Output file: ../robot/ik_based/pkl/008879.pkl
Status: SKIPPED (ALREADY EXISTS) - NO PROCESSING PERFORMED
==================================================

=== ERROR LOG - 2025-10-15 01:41:54 ===
Input file: /data/retarget/locomotion/raw/AMASS_SMPLXG/Eyes_Japan_Dataset/shiono/walk-05-backward-shiono_stageii.npz
Output file: ../robot/ik_based/pkl/008880.pkl
Robot type: unitree_g1
Processing time: 128.07 seconds

STEP-BY-STEP TIMING (FAILED):
  Load Smplx: 33.90s
  Align Fps: 22.15s
  Init Retarget: 0.42s
  Init Visualization: 0.00s
  Process Frames: 71.48s (avg: 0.084s/frame)
  Convert Arrays: 0.01s
Error message: CUDA error: out of memory
CUDA kernel errors might be asynchronously reported at some other API call, so the stacktrace below might be incorrect.
For debugging consider passing CUDA_LAUNCH_BLOCKING=1
Compile with `TORCH_USE_CUDA_DSA` to enable device-side assertions.

Error type: AcceleratorError
==================================================

=== FILE FAILURE - 2025-10-15 01:41:55 ===
File index: 008880
File number: 881/9757
Input file: /data/retarget/locomotion/raw/AMASS_SMPLXG/Eyes_Japan_Dataset/shiono/walk-05-backward-shiono_stageii.npz
Output file: ../robot/ik_based/pkl/008880.pkl
Processing time: 128.07 seconds
Total file time: 128.77 seconds
Status: FAILED
==================================================

=== ERROR LOG - 2025-10-15 01:43:43 ===
Input file: /data/retarget/locomotion/raw/AMASS_SMPLXG/Eyes_Japan_Dataset/shiono/walk-06-catwalk-shiono_stageii.npz
Output file: ../robot/ik_based/pkl/008881.pkl
Robot type: unitree_g1
Processing time: 108.24 seconds

STEP-BY-STEP TIMING (FAILED):
  Load Smplx: 28.26s
  Align Fps: 13.80s
  Init Retarget: 0.80s
  Init Visualization: 0.00s
  Process Frames: 65.26s (avg: 0.077s/frame)
  Convert Arrays: 0.02s
Error message: CUDA error: out of memory
CUDA kernel errors might be asynchronously reported at some other API call, so the stacktrace below might be incorrect.
For debugging consider passing CUDA_LAUNCH_BLOCKING=1
Compile with `TORCH_USE_CUDA_DSA` to enable device-side assertions.

Error type: AcceleratorError
==================================================

=== FILE FAILURE - 2025-10-15 01:43:44 ===
File index: 008881
File number: 882/9757
Input file: /data/retarget/locomotion/raw/AMASS_SMPLXG/Eyes_Japan_Dataset/shiono/walk-06-catwalk-shiono_stageii.npz
Output file: ../robot/ik_based/pkl/008881.pkl
Processing time: 108.24 seconds
Total file time: 109.12 seconds
Status: FAILED
==================================================

=== ERROR LOG - 2025-10-15 01:45:43 ===
Input file: /data/retarget/locomotion/raw/AMASS_SMPLXG/Eyes_Japan_Dataset/shiono/walk-09-handbag-shiono_stageii.npz
Output file: ../robot/ik_based/pkl/008882.pkl
Robot type: unitree_g1
Processing time: 118.66 seconds

STEP-BY-STEP TIMING (FAILED):
  Load Smplx: 16.74s
  Align Fps: 16.26s
  Init Retarget: 1.09s
  Init Visualization: 0.00s
  Process Frames: 84.49s (avg: 0.099s/frame)
  Convert Arrays: 0.01s
Error message: CUDA error: out of memory
CUDA kernel errors might be asynchronously reported at some other API call, so the stacktrace below might be incorrect.
For debugging consider passing CUDA_LAUNCH_BLOCKING=1
Compile with `TORCH_USE_CUDA_DSA` to enable device-side assertions.

Error type: AcceleratorError
==================================================

=== FILE FAILURE - 2025-10-15 01:45:43 ===
File index: 008882
File number: 883/9757
Input file: /data/retarget/locomotion/raw/AMASS_SMPLXG/Eyes_Japan_Dataset/shiono/walk-09-handbag-shiono_stageii.npz
Output file: ../robot/ik_based/pkl/008882.pkl
Processing time: 118.66 seconds
Total file time: 119.37 seconds
Status: FAILED
==================================================

=== ERROR LOG - 2025-10-15 01:47:28 ===
Input file: /data/retarget/locomotion/raw/AMASS_SMPLXG/Eyes_Japan_Dataset/shiono/walk-10-shoulder_bag-shiono_stageii.npz
Output file: ../robot/ik_based/pkl/008883.pkl
Robot type: unitree_g1
Processing time: 104.31 seconds

STEP-BY-STEP TIMING (FAILED):
  Load Smplx: 20.17s
  Align Fps: 11.34s
  Init Retarget: 1.10s
  Init Visualization: 0.00s
  Process Frames: 71.49s (avg: 0.084s/frame)
  Convert Arrays: 0.00s
Error message: CUDA error: out of memory
CUDA kernel errors might be asynchronously reported at some other API call, so the stacktrace below might be incorrect.
For debugging consider passing CUDA_LAUNCH_BLOCKING=1
Compile with `TORCH_USE_CUDA_DSA` to enable device-side assertions.

Error type: AcceleratorError
==================================================

=== FILE FAILURE - 2025-10-15 01:47:29 ===
File index: 008883
File number: 884/9757
Input file: /data/retarget/locomotion/raw/AMASS_SMPLXG/Eyes_Japan_Dataset/shiono/walk-10-shoulder_bag-shiono_stageii.npz
Output file: ../robot/ik_based/pkl/008883.pkl
Processing time: 104.31 seconds
Total file time: 105.16 seconds
Status: FAILED
==================================================

=== ERROR LOG - 2025-10-15 01:49:22 ===
Input file: /data/retarget/locomotion/raw/AMASS_SMPLXG/Eyes_Japan_Dataset/shiono/walk-11-baggage_on_the_head-shiono_stageii.npz
Output file: ../robot/ik_based/pkl/008884.pkl
Robot type: unitree_g1
Processing time: 113.73 seconds

STEP-BY-STEP TIMING (FAILED):
  Load Smplx: 22.53s
  Align Fps: 6.93s
  Init Retarget: 0.71s
  Init Visualization: 0.00s
  Process Frames: 81.78s (avg: 0.096s/frame)
  Convert Arrays: 0.01s
Error message: CUDA error: out of memory
CUDA kernel errors might be asynchronously reported at some other API call, so the stacktrace below might be incorrect.
For debugging consider passing CUDA_LAUNCH_BLOCKING=1
Compile with `TORCH_USE_CUDA_DSA` to enable device-side assertions.

Error type: AcceleratorError
==================================================

=== FILE FAILURE - 2025-10-15 01:49:23 ===
File index: 008884
File number: 885/9757
Input file: /data/retarget/locomotion/raw/AMASS_SMPLXG/Eyes_Japan_Dataset/shiono/walk-11-baggage_on_the_head-shiono_stageii.npz
Output file: ../robot/ik_based/pkl/008884.pkl
Processing time: 113.73 seconds
Total file time: 114.59 seconds
Status: FAILED
==================================================

=== SKIPPED (ALREADY EXISTS) - 2025-10-15 01:49:23 ===
File index: 008885
Input file: /data/retarget/locomotion/raw/AMASS_SMPLXG/Eyes_Japan_Dataset/shiono/walk-13-baggage_on_the_shoulder-shiono_stageii.npz
Output file: ../robot/ik_based/pkl/008885.pkl
Status: SKIPPED (ALREADY EXISTS) - NO PROCESSING PERFORMED
==================================================

=== ERROR LOG - 2025-10-15 01:51:09 ===
Input file: /data/retarget/locomotion/raw/AMASS_SMPLXG/Eyes_Japan_Dataset/shiono/walk-18-shuffle_forward-shiono_stageii.npz
Output file: ../robot/ik_based/pkl/008886.pkl
Robot type: unitree_g1
Processing time: 106.09 seconds

STEP-BY-STEP TIMING (FAILED):
  Load Smplx: 33.85s
  Align Fps: 13.54s
  Init Retarget: 1.21s
  Init Visualization: 0.00s
  Process Frames: 55.31s (avg: 0.065s/frame)
  Convert Arrays: 0.02s
Error message: CUDA error: out of memory
CUDA kernel errors might be asynchronously reported at some other API call, so the stacktrace below might be incorrect.
For debugging consider passing CUDA_LAUNCH_BLOCKING=1
Compile with `TORCH_USE_CUDA_DSA` to enable device-side assertions.

Error type: AcceleratorError
==================================================

=== FILE FAILURE - 2025-10-15 01:51:10 ===
File index: 008886
File number: 887/9757
Input file: /data/retarget/locomotion/raw/AMASS_SMPLXG/Eyes_Japan_Dataset/shiono/walk-18-shuffle_forward-shiono_stageii.npz
Output file: ../robot/ik_based/pkl/008886.pkl
Processing time: 106.09 seconds
Total file time: 107.25 seconds
Status: FAILED
==================================================

=== ERROR LOG - 2025-10-15 01:52:55 ===
Input file: /data/retarget/locomotion/raw/AMASS_SMPLXG/Eyes_Japan_Dataset/shiono/walk-23-shuffle_oneleg-shiono_stageii.npz
Output file: ../robot/ik_based/pkl/008887.pkl
Robot type: unitree_g1
Processing time: 104.79 seconds

STEP-BY-STEP TIMING (FAILED):
  Load Smplx: 40.64s
  Align Fps: 20.51s
  Init Retarget: 1.23s
  Init Visualization: 0.00s
  Process Frames: 42.23s (avg: 0.050s/frame)
  Convert Arrays: 0.00s
Error message: CUDA error: out of memory
CUDA kernel errors might be asynchronously reported at some other API call, so the stacktrace below might be incorrect.
For debugging consider passing CUDA_LAUNCH_BLOCKING=1
Compile with `TORCH_USE_CUDA_DSA` to enable device-side assertions.

Error type: AcceleratorError
==================================================

=== FILE FAILURE - 2025-10-15 01:52:56 ===
File index: 008887
File number: 888/9757
Input file: /data/retarget/locomotion/raw/AMASS_SMPLXG/Eyes_Japan_Dataset/shiono/walk-23-shuffle_oneleg-shiono_stageii.npz
Output file: ../robot/ik_based/pkl/008887.pkl
Processing time: 104.79 seconds
Total file time: 105.92 seconds
Status: FAILED
==================================================

=== ERROR LOG - 2025-10-15 01:54:58 ===
Input file: /data/retarget/locomotion/raw/AMASS_SMPLXG/Eyes_Japan_Dataset/shiono/walk-28-look_up-shiono_stageii.npz
Output file: ../robot/ik_based/pkl/008888.pkl
Robot type: unitree_g1
Processing time: 121.90 seconds

STEP-BY-STEP TIMING (FAILED):
  Load Smplx: 25.92s
  Align Fps: 18.27s
  Init Retarget: 1.40s
  Init Visualization: 0.00s
  Process Frames: 76.25s (avg: 0.090s/frame)
  Convert Arrays: 0.00s
Error message: CUDA error: out of memory
CUDA kernel errors might be asynchronously reported at some other API call, so the stacktrace below might be incorrect.
For debugging consider passing CUDA_LAUNCH_BLOCKING=1
Compile with `TORCH_USE_CUDA_DSA` to enable device-side assertions.

Error type: AcceleratorError
==================================================

=== FILE FAILURE - 2025-10-15 01:54:59 ===
File index: 008888
File number: 889/9757
Input file: /data/retarget/locomotion/raw/AMASS_SMPLXG/Eyes_Japan_Dataset/shiono/walk-28-look_up-shiono_stageii.npz
Output file: ../robot/ik_based/pkl/008888.pkl
Processing time: 121.90 seconds
Total file time: 122.74 seconds
Status: FAILED
==================================================
