
=== SKIPPED (ALREADY EXISTS) - 2025-10-14 14:09:03 ===
File index: 007740
Input file: /data/retarget/locomotion/raw/AMASS_SMPLXG/DanceDB/20131001_TheodoraTsiakka/Theodora_Afraid_C3D_stageii.npz
Output file: ../robot/ik_based/pkl/007740.pkl
Status: SKIPPED (ALREADY EXISTS)
==================================================

=== SKIPPED (ALREADY EXISTS) - 2025-10-14 14:09:03 ===
File index: 007741
Input file: /data/retarget/locomotion/raw/AMASS_SMPLXG/DanceDB/20131001_TheodoraTsiakka/Theodora_Bored_C3D_stageii.npz
Output file: ../robot/ik_based/pkl/007741.pkl
Status: SKIPPED (ALREADY EXISTS)
==================================================

=== SKIPPED (ALREADY EXISTS) - 2025-10-14 14:09:03 ===
File index: 007742
Input file: /data/retarget/locomotion/raw/AMASS_SMPLXG/DanceDB/20131001_TheodoraTsiakka/Theodora_Excited_C3D_stageii.npz
Output file: ../robot/ik_based/pkl/007742.pkl
Status: SKIPPED (ALREADY EXISTS)
==================================================

=== SKIPPED (ALREADY EXISTS) - 2025-10-14 14:09:03 ===
File index: 007743
Input file: /data/retarget/locomotion/raw/AMASS_SMPLXG/DanceDB/20131001_TheodoraTsiakka/Theodora_Happy_C3D_stageii.npz
Output file: ../robot/ik_based/pkl/007743.pkl
Status: SKIPPED (ALREADY EXISTS)
==================================================

=== SKIPPED (ALREADY EXISTS) - 2025-10-14 14:09:03 ===
File index: 007744
Input file: /data/retarget/locomotion/raw/AMASS_SMPLXG/DanceDB/20131001_TheodoraTsiakka/Theodora_Miserable_C3D_stageii.npz
Output file: ../robot/ik_based/pkl/007744.pkl
Status: SKIPPED (ALREADY EXISTS)
==================================================

=== SUCCESS LOG - 2025-10-14 14:11:33 ===
Input file: /data/retarget/locomotion/raw/AMASS_SMPLXG/DanceDB/20131001_TheodoraTsiakka/Theodora_Mix_C3D_stageii.npz
Output file: ../robot/ik_based/pkl/007745.pkl
Robot type: unitree_g1
Processing time: 150.29 seconds

STEP-BY-STEP TIMING:
  Step 1 - Load SMPLX:        4.69s
  Step 2 - Align FPS:         15.70s
  Step 3 - Init Retarget:     0.92s
  Step 4 - Init Visualization: 0.00s
  Step 5 - Process Frames:    128.08s (avg: 0.035s/frame)
  Step 6 - Convert Arrays:    0.01s
  Step 7 - Forward Kinematics: 0.86s
  Step 8 - Save Data:         0.01s
Status: SUCCESS
==================================================

=== FILE SUCCESS - 2025-10-14 14:11:35 ===
File index: 007745
File number: 6/10017
Input file: /data/retarget/locomotion/raw/AMASS_SMPLXG/DanceDB/20131001_TheodoraTsiakka/Theodora_Mix_C3D_stageii.npz
Output file: ../robot/ik_based/pkl/007745.pkl
Processing time: 150.29 seconds
Total file time: 152.42 seconds
Status: SUCCESS
==================================================

=== SUCCESS LOG - 2025-10-14 14:13:56 ===
Input file: /data/retarget/locomotion/raw/AMASS_SMPLXG/DanceDB/20131001_TheodoraTsiakka/Theodora_Pleased_C3D_stageii.npz
Output file: ../robot/ik_based/pkl/007746.pkl
Robot type: unitree_g1
Processing time: 140.63 seconds

STEP-BY-STEP TIMING:
  Step 1 - Load SMPLX:        3.71s
  Step 2 - Align FPS:         11.68s
  Step 3 - Init Retarget:     0.30s
  Step 4 - Init Visualization: 0.00s
  Step 5 - Process Frames:    124.52s (avg: 0.045s/frame)
  Step 6 - Convert Arrays:    0.01s
  Step 7 - Forward Kinematics: 0.39s
  Step 8 - Save Data:         0.00s
Status: SUCCESS
==================================================

=== FILE SUCCESS - 2025-10-14 14:13:57 ===
File index: 007746
File number: 7/10017
Input file: /data/retarget/locomotion/raw/AMASS_SMPLXG/DanceDB/20131001_TheodoraTsiakka/Theodora_Pleased_C3D_stageii.npz
Output file: ../robot/ik_based/pkl/007746.pkl
Processing time: 140.63 seconds
Total file time: 142.33 seconds
Status: SUCCESS
==================================================

=== SUCCESS LOG - 2025-10-14 14:16:06 ===
Input file: /data/retarget/locomotion/raw/AMASS_SMPLXG/DanceDB/20131001_TheodoraTsiakka/Theodora_Tired_C3D_stageii.npz
Output file: ../robot/ik_based/pkl/007747.pkl
Robot type: unitree_g1
Processing time: 128.24 seconds

STEP-BY-STEP TIMING:
  Step 1 - Load SMPLX:        3.68s
  Step 2 - Align FPS:         11.69s
  Step 3 - Init Retarget:     0.26s
  Step 4 - Init Visualization: 0.00s
  Step 5 - Process Frames:    112.36s (avg: 0.042s/frame)
  Step 6 - Convert Arrays:    0.01s
  Step 7 - Forward Kinematics: 0.21s
  Step 8 - Save Data:         0.00s
Status: SUCCESS
==================================================

=== FILE SUCCESS - 2025-10-14 14:16:07 ===
File index: 007747
File number: 8/10017
Input file: /data/retarget/locomotion/raw/AMASS_SMPLXG/DanceDB/20131001_TheodoraTsiakka/Theodora_Tired_C3D_stageii.npz
Output file: ../robot/ik_based/pkl/007747.pkl
Processing time: 128.24 seconds
Total file time: 129.87 seconds
Status: SUCCESS
==================================================

=== ERROR LOG - 2025-10-14 14:16:08 ===
Input file: /data/retarget/locomotion/raw/AMASS_SMPLXG/DanceDB/20131001_TheodoraTsiakka/female_stagei.npz
Output file: ../robot/ik_based/pkl/007748.pkl
Robot type: unitree_g1
Processing time: 0.65 seconds
Error message: 'pose_body is not a file in the archive'
Error type: KeyError
==================================================

=== FILE FAILURE - 2025-10-14 14:16:08 ===
File index: 007748
File number: 9/10017
Input file: /data/retarget/locomotion/raw/AMASS_SMPLXG/DanceDB/20131001_TheodoraTsiakka/female_stagei.npz
Output file: ../robot/ik_based/pkl/007748.pkl
Processing time: 0.65 seconds
Total file time: 0.71 seconds
Status: FAILED
==================================================

=== SUCCESS LOG - 2025-10-14 14:17:40 ===
Input file: /data/retarget/locomotion/raw/AMASS_SMPLXG/DanceDB/20131001_VasoAristeidou/Vasso_Afraid_01_stageii.npz
Output file: ../robot/ik_based/pkl/007749.pkl
Robot type: unitree_g1
Processing time: 92.53 seconds

STEP-BY-STEP TIMING:
  Step 1 - Load SMPLX:        4.11s
  Step 2 - Align FPS:         14.07s
  Step 3 - Init Retarget:     0.26s
  Step 4 - Init Visualization: 0.00s
  Step 5 - Process Frames:    74.00s (avg: 0.022s/frame)
  Step 6 - Convert Arrays:    0.01s
  Step 7 - Forward Kinematics: 0.06s
  Step 8 - Save Data:         0.01s
Status: SUCCESS
==================================================

=== FILE SUCCESS - 2025-10-14 14:17:42 ===
File index: 007749
File number: 10/10017
Input file: /data/retarget/locomotion/raw/AMASS_SMPLXG/DanceDB/20131001_VasoAristeidou/Vasso_Afraid_01_stageii.npz
Output file: ../robot/ik_based/pkl/007749.pkl
Processing time: 92.53 seconds
Total file time: 94.41 seconds
Status: SUCCESS
==================================================

=== SUCCESS LOG - 2025-10-14 14:19:45 ===
Input file: /data/retarget/locomotion/raw/AMASS_SMPLXG/DanceDB/20131001_VasoAristeidou/Vasso_Angry_01_stageii.npz
Output file: ../robot/ik_based/pkl/007750.pkl
Robot type: unitree_g1
Processing time: 122.61 seconds

STEP-BY-STEP TIMING:
  Step 1 - Load SMPLX:        4.15s
  Step 2 - Align FPS:         13.96s
  Step 3 - Init Retarget:     0.20s
  Step 4 - Init Visualization: 0.00s
  Step 5 - Process Frames:    104.22s (avg: 0.032s/frame)
  Step 6 - Convert Arrays:    0.01s
  Step 7 - Forward Kinematics: 0.04s
  Step 8 - Save Data:         0.00s
Status: SUCCESS
==================================================

=== FILE SUCCESS - 2025-10-14 14:19:47 ===
File index: 007750
File number: 11/10017
Input file: /data/retarget/locomotion/raw/AMASS_SMPLXG/DanceDB/20131001_VasoAristeidou/Vasso_Angry_01_stageii.npz
Output file: ../robot/ik_based/pkl/007750.pkl
Processing time: 122.61 seconds
Total file time: 124.52 seconds
Status: SUCCESS
==================================================

=== SUCCESS LOG - 2025-10-14 14:22:01 ===
Input file: /data/retarget/locomotion/raw/AMASS_SMPLXG/DanceDB/20131001_VasoAristeidou/Vasso_Annoyed_01_stageii.npz
Output file: ../robot/ik_based/pkl/007751.pkl
Robot type: unitree_g1
Processing time: 134.46 seconds

STEP-BY-STEP TIMING:
  Step 1 - Load SMPLX:        3.52s
  Step 2 - Align FPS:         14.65s
  Step 3 - Init Retarget:     0.27s
  Step 4 - Init Visualization: 0.00s
  Step 5 - Process Frames:    115.94s (avg: 0.039s/frame)
  Step 6 - Convert Arrays:    0.01s
  Step 7 - Forward Kinematics: 0.05s
  Step 8 - Save Data:         0.01s
Status: SUCCESS
==================================================

=== FILE SUCCESS - 2025-10-14 14:22:03 ===
File index: 007751
File number: 12/10017
Input file: /data/retarget/locomotion/raw/AMASS_SMPLXG/DanceDB/20131001_VasoAristeidou/Vasso_Annoyed_01_stageii.npz
Output file: ../robot/ik_based/pkl/007751.pkl
Processing time: 134.46 seconds
Total file time: 135.90 seconds
Status: SUCCESS
==================================================

=== SUCCESS LOG - 2025-10-14 14:24:12 ===
Input file: /data/retarget/locomotion/raw/AMASS_SMPLXG/DanceDB/20131001_VasoAristeidou/Vasso_Bored_01_stageii.npz
Output file: ../robot/ik_based/pkl/007752.pkl
Robot type: unitree_g1
Processing time: 129.45 seconds

STEP-BY-STEP TIMING:
  Step 1 - Load SMPLX:        4.19s
  Step 2 - Align FPS:         15.82s
  Step 3 - Init Retarget:     0.28s
  Step 4 - Init Visualization: 0.00s
  Step 5 - Process Frames:    109.08s (avg: 0.033s/frame)
  Step 6 - Convert Arrays:    0.01s
  Step 7 - Forward Kinematics: 0.04s
  Step 8 - Save Data:         0.01s
Status: SUCCESS
==================================================

=== FILE SUCCESS - 2025-10-14 14:24:14 ===
File index: 007752
File number: 13/10017
Input file: /data/retarget/locomotion/raw/AMASS_SMPLXG/DanceDB/20131001_VasoAristeidou/Vasso_Bored_01_stageii.npz
Output file: ../robot/ik_based/pkl/007752.pkl
Processing time: 129.45 seconds
Total file time: 130.98 seconds
Status: SUCCESS
==================================================

=== SUCCESS LOG - 2025-10-14 14:26:11 ===
Input file: /data/retarget/locomotion/raw/AMASS_SMPLXG/DanceDB/20131001_VasoAristeidou/Vasso_Excited_01_stageii.npz
Output file: ../robot/ik_based/pkl/007753.pkl
Robot type: unitree_g1
Processing time: 117.41 seconds

STEP-BY-STEP TIMING:
  Step 1 - Load SMPLX:        3.99s
  Step 2 - Align FPS:         13.84s
  Step 3 - Init Retarget:     0.27s
  Step 4 - Init Visualization: 0.00s
  Step 5 - Process Frames:    99.21s (avg: 0.033s/frame)
  Step 6 - Convert Arrays:    0.01s
  Step 7 - Forward Kinematics: 0.05s
  Step 8 - Save Data:         0.01s
Status: SUCCESS
==================================================

=== FILE SUCCESS - 2025-10-14 14:26:13 ===
File index: 007753
File number: 14/10017
Input file: /data/retarget/locomotion/raw/AMASS_SMPLXG/DanceDB/20131001_VasoAristeidou/Vasso_Excited_01_stageii.npz
Output file: ../robot/ik_based/pkl/007753.pkl
Processing time: 117.41 seconds
Total file time: 118.85 seconds
Status: SUCCESS
==================================================

=== SUCCESS LOG - 2025-10-14 14:28:02 ===
Input file: /data/retarget/locomotion/raw/AMASS_SMPLXG/DanceDB/20131001_VasoAristeidou/Vasso_Happy_01_stageii.npz
Output file: ../robot/ik_based/pkl/007754.pkl
Robot type: unitree_g1
Processing time: 109.72 seconds

STEP-BY-STEP TIMING:
  Step 1 - Load SMPLX:        3.79s
  Step 2 - Align FPS:         14.19s
  Step 3 - Init Retarget:     0.29s
  Step 4 - Init Visualization: 0.00s
  Step 5 - Process Frames:    91.34s (avg: 0.029s/frame)
  Step 6 - Convert Arrays:    0.01s
  Step 7 - Forward Kinematics: 0.07s
  Step 8 - Save Data:         0.01s
Status: SUCCESS
==================================================

=== FILE SUCCESS - 2025-10-14 14:28:04 ===
File index: 007754
File number: 15/10017
Input file: /data/retarget/locomotion/raw/AMASS_SMPLXG/DanceDB/20131001_VasoAristeidou/Vasso_Happy_01_stageii.npz
Output file: ../robot/ik_based/pkl/007754.pkl
Processing time: 109.72 seconds
Total file time: 111.14 seconds
Status: SUCCESS
==================================================

=== SUCCESS LOG - 2025-10-14 14:30:07 ===
Input file: /data/retarget/locomotion/raw/AMASS_SMPLXG/DanceDB/20131001_VasoAristeidou/Vasso_Miserable_01_stageii.npz
Output file: ../robot/ik_based/pkl/007755.pkl
Robot type: unitree_g1
Processing time: 123.09 seconds

STEP-BY-STEP TIMING:
  Step 1 - Load SMPLX:        3.76s
  Step 2 - Align FPS:         15.02s
  Step 3 - Init Retarget:     0.26s
  Step 4 - Init Visualization: 0.00s
  Step 5 - Process Frames:    103.98s (avg: 0.033s/frame)
  Step 6 - Convert Arrays:    0.01s
  Step 7 - Forward Kinematics: 0.04s
  Step 8 - Save Data:         0.01s
Status: SUCCESS
==================================================

=== FILE SUCCESS - 2025-10-14 14:30:08 ===
File index: 007755
File number: 16/10017
Input file: /data/retarget/locomotion/raw/AMASS_SMPLXG/DanceDB/20131001_VasoAristeidou/Vasso_Miserable_01_stageii.npz
Output file: ../robot/ik_based/pkl/007755.pkl
Processing time: 123.09 seconds
Total file time: 124.51 seconds
Status: SUCCESS
==================================================

=== SUCCESS LOG - 2025-10-14 14:33:37 ===
Input file: /data/retarget/locomotion/raw/AMASS_SMPLXG/DanceDB/20131001_VasoAristeidou/Vasso_Mix_01_stageii.npz
Output file: ../robot/ik_based/pkl/007756.pkl
Robot type: unitree_g1
Processing time: 208.36 seconds

STEP-BY-STEP TIMING:
  Step 1 - Load SMPLX:        6.04s
  Step 2 - Align FPS:         24.97s
  Step 3 - Init Retarget:     0.26s
  Step 4 - Init Visualization: 0.00s
  Step 5 - Process Frames:    176.98s (avg: 0.035s/frame)
  Step 6 - Convert Arrays:    0.01s
  Step 7 - Forward Kinematics: 0.06s
  Step 8 - Save Data:         0.01s
Status: SUCCESS
==================================================

=== FILE SUCCESS - 2025-10-14 14:33:39 ===
File index: 007756
File number: 17/10017
Input file: /data/retarget/locomotion/raw/AMASS_SMPLXG/DanceDB/20131001_VasoAristeidou/Vasso_Mix_01_stageii.npz
Output file: ../robot/ik_based/pkl/007756.pkl
Processing time: 208.36 seconds
Total file time: 210.65 seconds
Status: SUCCESS
==================================================

=== SUCCESS LOG - 2025-10-14 14:35:08 ===
Input file: /data/retarget/locomotion/raw/AMASS_SMPLXG/DanceDB/20131001_VasoAristeidou/Vasso_Relaxed_01_stageii.npz
Output file: ../robot/ik_based/pkl/007757.pkl
Robot type: unitree_g1
Processing time: 89.57 seconds

STEP-BY-STEP TIMING:
  Step 1 - Load SMPLX:        4.18s
  Step 2 - Align FPS:         15.72s
  Step 3 - Init Retarget:     0.30s
  Step 4 - Init Visualization: 0.00s
  Step 5 - Process Frames:    69.27s (avg: 0.022s/frame)
  Step 6 - Convert Arrays:    0.01s
  Step 7 - Forward Kinematics: 0.06s
  Step 8 - Save Data:         0.01s
Status: SUCCESS
==================================================

=== FILE SUCCESS - 2025-10-14 14:35:10 ===
File index: 007757
File number: 18/10017
Input file: /data/retarget/locomotion/raw/AMASS_SMPLXG/DanceDB/20131001_VasoAristeidou/Vasso_Relaxed_01_stageii.npz
Output file: ../robot/ik_based/pkl/007757.pkl
Processing time: 89.57 seconds
Total file time: 91.18 seconds
Status: SUCCESS
==================================================

=== SUCCESS LOG - 2025-10-14 14:36:43 ===
Input file: /data/retarget/locomotion/raw/AMASS_SMPLXG/DanceDB/20131001_VasoAristeidou/Vasso_Sad_01_stageii.npz
Output file: ../robot/ik_based/pkl/007758.pkl
Robot type: unitree_g1
Processing time: 92.85 seconds

STEP-BY-STEP TIMING:
  Step 1 - Load SMPLX:        4.23s
  Step 2 - Align FPS:         16.07s
  Step 3 - Init Retarget:     0.23s
  Step 4 - Init Visualization: 0.00s
  Step 5 - Process Frames:    72.14s (avg: 0.023s/frame)
  Step 6 - Convert Arrays:    0.01s
  Step 7 - Forward Kinematics: 0.15s
  Step 8 - Save Data:         0.00s
Status: SUCCESS
==================================================

=== FILE SUCCESS - 2025-10-14 14:36:44 ===
File index: 007758
File number: 19/10017
Input file: /data/retarget/locomotion/raw/AMASS_SMPLXG/DanceDB/20131001_VasoAristeidou/Vasso_Sad_01_stageii.npz
Output file: ../robot/ik_based/pkl/007758.pkl
Processing time: 92.85 seconds
Total file time: 94.43 seconds
Status: SUCCESS
==================================================

=== SUCCESS LOG - 2025-10-14 14:38:35 ===
Input file: /data/retarget/locomotion/raw/AMASS_SMPLXG/DanceDB/20131001_VasoAristeidou/Vasso_Satisfied_01_stageii.npz
Output file: ../robot/ik_based/pkl/007759.pkl
Robot type: unitree_g1
Processing time: 110.81 seconds

STEP-BY-STEP TIMING:
  Step 1 - Load SMPLX:        4.01s
  Step 2 - Align FPS:         15.95s
  Step 3 - Init Retarget:     0.31s
  Step 4 - Init Visualization: 0.00s
  Step 5 - Process Frames:    90.46s (avg: 0.028s/frame)
  Step 6 - Convert Arrays:    0.01s
  Step 7 - Forward Kinematics: 0.04s
  Step 8 - Save Data:         0.01s
Status: SUCCESS
==================================================

=== FILE SUCCESS - 2025-10-14 14:38:37 ===
File index: 007759
File number: 20/10017
Input file: /data/retarget/locomotion/raw/AMASS_SMPLXG/DanceDB/20131001_VasoAristeidou/Vasso_Satisfied_01_stageii.npz
Output file: ../robot/ik_based/pkl/007759.pkl
Processing time: 110.81 seconds
Total file time: 112.37 seconds
Status: SUCCESS
==================================================

=== SUCCESS LOG - 2025-10-14 14:40:05 ===
Input file: /data/retarget/locomotion/raw/AMASS_SMPLXG/DanceDB/20131001_VasoAristeidou/Vasso_Tired_stageii.npz
Output file: ../robot/ik_based/pkl/007760.pkl
Robot type: unitree_g1
Processing time: 88.57 seconds

STEP-BY-STEP TIMING:
  Step 1 - Load SMPLX:        3.90s
  Step 2 - Align FPS:         15.47s
  Step 3 - Init Retarget:     0.28s
  Step 4 - Init Visualization: 0.00s
  Step 5 - Process Frames:    68.75s (avg: 0.022s/frame)
  Step 6 - Convert Arrays:    0.01s
  Step 7 - Forward Kinematics: 0.12s
  Step 8 - Save Data:         0.01s
Status: SUCCESS
==================================================

=== FILE SUCCESS - 2025-10-14 14:40:07 ===
File index: 007760
File number: 21/10017
Input file: /data/retarget/locomotion/raw/AMASS_SMPLXG/DanceDB/20131001_VasoAristeidou/Vasso_Tired_stageii.npz
Output file: ../robot/ik_based/pkl/007760.pkl
Processing time: 88.57 seconds
Total file time: 89.99 seconds
Status: SUCCESS
==================================================

=== ERROR LOG - 2025-10-14 14:40:08 ===
Input file: /data/retarget/locomotion/raw/AMASS_SMPLXG/DanceDB/20131001_VasoAristeidou/female_stagei.npz
Output file: ../robot/ik_based/pkl/007761.pkl
Robot type: unitree_g1
Processing time: 0.72 seconds
Error message: 'pose_body is not a file in the archive'
Error type: KeyError
==================================================

=== FILE FAILURE - 2025-10-14 14:40:08 ===
File index: 007761
File number: 22/10017
Input file: /data/retarget/locomotion/raw/AMASS_SMPLXG/DanceDB/20131001_VasoAristeidou/female_stagei.npz
Output file: ../robot/ik_based/pkl/007761.pkl
Processing time: 0.72 seconds
Total file time: 0.77 seconds
Status: FAILED
==================================================

=== SUCCESS LOG - 2025-10-14 14:43:05 ===
Input file: /data/retarget/locomotion/raw/AMASS_SMPLXG/DanceDB/20140121_FanieAlexandrou/Fanie_Hiphop_C3D_stageii.npz
Output file: ../robot/ik_based/pkl/007762.pkl
Robot type: unitree_g1
Processing time: 176.94 seconds

STEP-BY-STEP TIMING:
  Step 1 - Load SMPLX:        4.45s
  Step 2 - Align FPS:         19.60s
  Step 3 - Init Retarget:     0.27s
  Step 4 - Init Visualization: 0.00s
  Step 5 - Process Frames:    152.55s (avg: 0.039s/frame)
  Step 6 - Convert Arrays:    0.01s
  Step 7 - Forward Kinematics: 0.04s
  Step 8 - Save Data:         0.01s
Status: SUCCESS
==================================================

=== FILE SUCCESS - 2025-10-14 14:43:06 ===
File index: 007762
File number: 23/10017
Input file: /data/retarget/locomotion/raw/AMASS_SMPLXG/DanceDB/20140121_FanieAlexandrou/Fanie_Hiphop_C3D_stageii.npz
Output file: ../robot/ik_based/pkl/007762.pkl
Processing time: 176.94 seconds
Total file time: 178.74 seconds
Status: SUCCESS
==================================================

=== SUCCESS LOG - 2025-10-14 14:46:06 ===
Input file: /data/retarget/locomotion/raw/AMASS_SMPLXG/DanceDB/20140121_FanieAlexandrou/Fanie_MusicalTheater_C3D_stageii.npz
Output file: ../robot/ik_based/pkl/007763.pkl
Robot type: unitree_g1
Processing time: 179.32 seconds

STEP-BY-STEP TIMING:
  Step 1 - Load SMPLX:        4.77s
  Step 2 - Align FPS:         18.63s
  Step 3 - Init Retarget:     0.23s
  Step 4 - Init Visualization: 0.00s
  Step 5 - Process Frames:    155.61s (avg: 0.041s/frame)
  Step 6 - Convert Arrays:    0.01s
  Step 7 - Forward Kinematics: 0.03s
  Step 8 - Save Data:         0.01s
Status: SUCCESS
==================================================

=== FILE SUCCESS - 2025-10-14 14:46:08 ===
File index: 007763
File number: 24/10017
Input file: /data/retarget/locomotion/raw/AMASS_SMPLXG/DanceDB/20140121_FanieAlexandrou/Fanie_MusicalTheater_C3D_stageii.npz
Output file: ../robot/ik_based/pkl/007763.pkl
Processing time: 179.32 seconds
Total file time: 181.20 seconds
Status: SUCCESS
==================================================

=== SUCCESS LOG - 2025-10-14 14:52:12 ===
Input file: /data/retarget/locomotion/raw/AMASS_SMPLXG/DanceDB/20140121_FanieAlexandrou/Fanie_Zumba_C3D_stageii.npz
Output file: ../robot/ik_based/pkl/007764.pkl
Robot type: unitree_g1
Processing time: 364.17 seconds

STEP-BY-STEP TIMING:
  Step 1 - Load SMPLX:        7.00s
  Step 2 - Align FPS:         33.05s
  Step 3 - Init Retarget:     0.29s
  Step 4 - Init Visualization: 0.00s
  Step 5 - Process Frames:    323.73s (avg: 0.048s/frame)
  Step 6 - Convert Arrays:    0.02s
  Step 7 - Forward Kinematics: 0.04s
  Step 8 - Save Data:         0.01s
Status: SUCCESS
==================================================

=== FILE SUCCESS - 2025-10-14 14:52:15 ===
File index: 007764
File number: 25/10017
Input file: /data/retarget/locomotion/raw/AMASS_SMPLXG/DanceDB/20140121_FanieAlexandrou/Fanie_Zumba_C3D_stageii.npz
Output file: ../robot/ik_based/pkl/007764.pkl
Processing time: 364.17 seconds
Total file time: 367.29 seconds
Status: SUCCESS
==================================================

=== ERROR LOG - 2025-10-14 14:52:16 ===
Input file: /data/retarget/locomotion/raw/AMASS_SMPLXG/DanceDB/20140121_FanieAlexandrou/female_stagei.npz
Output file: ../robot/ik_based/pkl/007765.pkl
Robot type: unitree_g1
Processing time: 0.71 seconds
Error message: 'pose_body is not a file in the archive'
Error type: KeyError
==================================================

=== FILE FAILURE - 2025-10-14 14:52:16 ===
File index: 007765
File number: 26/10017
Input file: /data/retarget/locomotion/raw/AMASS_SMPLXG/DanceDB/20140121_FanieAlexandrou/female_stagei.npz
Output file: ../robot/ik_based/pkl/007765.pkl
Processing time: 0.71 seconds
Total file time: 0.76 seconds
Status: FAILED
==================================================

=== SUCCESS LOG - 2025-10-14 14:55:26 ===
Input file: /data/retarget/locomotion/raw/AMASS_SMPLXG/DanceDB/20140506_AnnaCortesi/AnnaCortesi_RandB_C3D_stageii.npz
Output file: ../robot/ik_based/pkl/007766.pkl
Robot type: unitree_g1
Processing time: 190.01 seconds

STEP-BY-STEP TIMING:
  Step 1 - Load SMPLX:        4.72s
  Step 2 - Align FPS:         19.88s
  Step 3 - Init Retarget:     0.21s
  Step 4 - Init Visualization: 0.00s
  Step 5 - Process Frames:    165.01s (avg: 0.040s/frame)
  Step 6 - Convert Arrays:    0.02s
  Step 7 - Forward Kinematics: 0.13s
  Step 8 - Save Data:         0.02s
Status: SUCCESS
==================================================

=== FILE SUCCESS - 2025-10-14 14:55:28 ===
File index: 007766
File number: 27/10017
Input file: /data/retarget/locomotion/raw/AMASS_SMPLXG/DanceDB/20140506_AnnaCortesi/AnnaCortesi_RandB_C3D_stageii.npz
Output file: ../robot/ik_based/pkl/007766.pkl
Processing time: 190.01 seconds
Total file time: 192.27 seconds
Status: SUCCESS
==================================================

=== ERROR LOG - 2025-10-14 14:55:29 ===
Input file: /data/retarget/locomotion/raw/AMASS_SMPLXG/DanceDB/20140506_AnnaCortesi/female_stagei.npz
Output file: ../robot/ik_based/pkl/007767.pkl
Robot type: unitree_g1
Processing time: 0.79 seconds
Error message: 'pose_body is not a file in the archive'
Error type: KeyError
==================================================

=== FILE FAILURE - 2025-10-14 14:55:29 ===
File index: 007767
File number: 28/10017
Input file: /data/retarget/locomotion/raw/AMASS_SMPLXG/DanceDB/20140506_AnnaCortesi/female_stagei.npz
Output file: ../robot/ik_based/pkl/007767.pkl
Processing time: 0.79 seconds
Total file time: 0.86 seconds
Status: FAILED
==================================================

=== SUCCESS LOG - 2025-10-14 14:57:57 ===
Input file: /data/retarget/locomotion/raw/AMASS_SMPLXG/DanceDB/20140526_StephanosKoullapis/StefanosKoullapis_Bachata_C3D_stageii.npz
Output file: ../robot/ik_based/pkl/007768.pkl
Robot type: unitree_g1
Processing time: 148.01 seconds

STEP-BY-STEP TIMING:
  Step 1 - Load SMPLX:        5.38s
  Step 2 - Align FPS:         21.58s
  Step 3 - Init Retarget:     0.26s
  Step 4 - Init Visualization: 0.00s
  Step 5 - Process Frames:    120.70s (avg: 0.028s/frame)
  Step 6 - Convert Arrays:    0.01s
  Step 7 - Forward Kinematics: 0.04s
  Step 8 - Save Data:         0.01s
Status: SUCCESS
==================================================

=== FILE SUCCESS - 2025-10-14 14:57:59 ===
File index: 007768
File number: 29/10017
Input file: /data/retarget/locomotion/raw/AMASS_SMPLXG/DanceDB/20140526_StephanosKoullapis/StefanosKoullapis_Bachata_C3D_stageii.npz
Output file: ../robot/ik_based/pkl/007768.pkl
Processing time: 148.01 seconds
Total file time: 150.05 seconds
Status: SUCCESS
==================================================

=== SUCCESS LOG - 2025-10-14 14:59:43 ===
Input file: /data/retarget/locomotion/raw/AMASS_SMPLXG/DanceDB/20140526_StephanosKoullapis/StefanosKoullapis_Bachata_v2_C3D_stageii.npz
Output file: ../robot/ik_based/pkl/007769.pkl
Robot type: unitree_g1
Processing time: 104.69 seconds

STEP-BY-STEP TIMING:
  Step 1 - Load SMPLX:        4.56s
  Step 2 - Align FPS:         18.31s
  Step 3 - Init Retarget:     0.27s
  Step 4 - Init Visualization: 0.00s
  Step 5 - Process Frames:    81.44s (avg: 0.022s/frame)
  Step 6 - Convert Arrays:    0.01s
  Step 7 - Forward Kinematics: 0.05s
  Step 8 - Save Data:         0.01s
Status: SUCCESS
==================================================

=== FILE SUCCESS - 2025-10-14 14:59:45 ===
File index: 007769
File number: 30/10017
Input file: /data/retarget/locomotion/raw/AMASS_SMPLXG/DanceDB/20140526_StephanosKoullapis/StefanosKoullapis_Bachata_v2_C3D_stageii.npz
Output file: ../robot/ik_based/pkl/007769.pkl
Processing time: 104.69 seconds
Total file time: 106.56 seconds
Status: SUCCESS
==================================================

=== SUCCESS LOG - 2025-10-14 15:03:06 ===
Input file: /data/retarget/locomotion/raw/AMASS_SMPLXG/DanceDB/20140526_StephanosKoullapis/StefanosKoullapis_Reggaeton_C3D_stageii.npz
Output file: ../robot/ik_based/pkl/007770.pkl
Robot type: unitree_g1
Processing time: 200.51 seconds

STEP-BY-STEP TIMING:
  Step 1 - Load SMPLX:        5.48s
  Step 2 - Align FPS:         24.17s
  Step 3 - Init Retarget:     0.29s
  Step 4 - Init Visualization: 0.00s
  Step 5 - Process Frames:    170.49s (avg: 0.035s/frame)
  Step 6 - Convert Arrays:    0.01s
  Step 7 - Forward Kinematics: 0.04s
  Step 8 - Save Data:         0.01s
Status: SUCCESS
==================================================

=== FILE SUCCESS - 2025-10-14 15:03:08 ===
File index: 007770
File number: 31/10017
Input file: /data/retarget/locomotion/raw/AMASS_SMPLXG/DanceDB/20140526_StephanosKoullapis/StefanosKoullapis_Reggaeton_C3D_stageii.npz
Output file: ../robot/ik_based/pkl/007770.pkl
Processing time: 200.51 seconds
Total file time: 202.56 seconds
Status: SUCCESS
==================================================

=== SUCCESS LOG - 2025-10-14 15:07:42 ===
Input file: /data/retarget/locomotion/raw/AMASS_SMPLXG/DanceDB/20140526_StephanosKoullapis/StefanosKoullapis_Salsa_C3D_stageii.npz
Output file: ../robot/ik_based/pkl/007771.pkl
Robot type: unitree_g1
Processing time: 274.55 seconds

STEP-BY-STEP TIMING:
  Step 1 - Load SMPLX:        6.70s
  Step 2 - Align FPS:         28.96s
  Step 3 - Init Retarget:     0.29s
  Step 4 - Init Visualization: 0.00s
  Step 5 - Process Frames:    238.50s (avg: 0.040s/frame)
  Step 6 - Convert Arrays:    0.01s
  Step 7 - Forward Kinematics: 0.05s
  Step 8 - Save Data:         0.01s
Status: SUCCESS
==================================================

=== FILE SUCCESS - 2025-10-14 15:07:45 ===
File index: 007771
File number: 32/10017
Input file: /data/retarget/locomotion/raw/AMASS_SMPLXG/DanceDB/20140526_StephanosKoullapis/StefanosKoullapis_Salsa_C3D_stageii.npz
Output file: ../robot/ik_based/pkl/007771.pkl
Processing time: 274.55 seconds
Total file time: 277.11 seconds
Status: SUCCESS
==================================================

=== SUCCESS LOG - 2025-10-14 15:09:25 ===
Input file: /data/retarget/locomotion/raw/AMASS_SMPLXG/DanceDB/20140526_StephanosKoullapis/StefanosKoullapis_Zeibekiko_Fast_C3D_stageii.npz
Output file: ../robot/ik_based/pkl/007772.pkl
Robot type: unitree_g1
Processing time: 99.49 seconds

STEP-BY-STEP TIMING:
  Step 1 - Load SMPLX:        3.55s
  Step 2 - Align FPS:         13.28s
  Step 3 - Init Retarget:     0.28s
  Step 4 - Init Visualization: 0.00s
  Step 5 - Process Frames:    82.29s (avg: 0.030s/frame)
  Step 6 - Convert Arrays:    0.01s
  Step 7 - Forward Kinematics: 0.05s
  Step 8 - Save Data:         0.00s
Status: SUCCESS
==================================================

=== FILE SUCCESS - 2025-10-14 15:09:26 ===
File index: 007772
File number: 33/10017
Input file: /data/retarget/locomotion/raw/AMASS_SMPLXG/DanceDB/20140526_StephanosKoullapis/StefanosKoullapis_Zeibekiko_Fast_C3D_stageii.npz
Output file: ../robot/ik_based/pkl/007772.pkl
Processing time: 99.49 seconds
Total file time: 100.87 seconds
Status: SUCCESS
==================================================

=== SUCCESS LOG - 2025-10-14 15:11:47 ===
Input file: /data/retarget/locomotion/raw/AMASS_SMPLXG/DanceDB/20140526_StephanosKoullapis/StefanosKoullapis_Zeibekiko_Slow_C3D_stageii.npz
Output file: ../robot/ik_based/pkl/007773.pkl
Robot type: unitree_g1
Processing time: 140.79 seconds

STEP-BY-STEP TIMING:
  Step 1 - Load SMPLX:        4.77s
  Step 2 - Align FPS:         19.26s
  Step 3 - Init Retarget:     0.17s
  Step 4 - Init Visualization: 0.00s
  Step 5 - Process Frames:    116.48s (avg: 0.029s/frame)
  Step 6 - Convert Arrays:    0.01s
  Step 7 - Forward Kinematics: 0.07s
  Step 8 - Save Data:         0.01s
Status: SUCCESS
==================================================

=== FILE SUCCESS - 2025-10-14 15:11:48 ===
File index: 007773
File number: 34/10017
Input file: /data/retarget/locomotion/raw/AMASS_SMPLXG/DanceDB/20140526_StephanosKoullapis/StefanosKoullapis_Zeibekiko_Slow_C3D_stageii.npz
Output file: ../robot/ik_based/pkl/007773.pkl
Processing time: 140.79 seconds
Total file time: 142.55 seconds
Status: SUCCESS
==================================================

=== ERROR LOG - 2025-10-14 15:11:49 ===
Input file: /data/retarget/locomotion/raw/AMASS_SMPLXG/DanceDB/20140526_StephanosKoullapis/male_stagei.npz
Output file: ../robot/ik_based/pkl/007774.pkl
Robot type: unitree_g1
Processing time: 0.79 seconds
Error message: 'pose_body is not a file in the archive'
Error type: KeyError
==================================================

=== FILE FAILURE - 2025-10-14 15:11:49 ===
File index: 007774
File number: 35/10017
Input file: /data/retarget/locomotion/raw/AMASS_SMPLXG/DanceDB/20140526_StephanosKoullapis/male_stagei.npz
Output file: ../robot/ik_based/pkl/007774.pkl
Processing time: 0.79 seconds
Total file time: 0.86 seconds
Status: FAILED
==================================================

=== SUCCESS LOG - 2025-10-14 15:15:23 ===
Input file: /data/retarget/locomotion/raw/AMASS_SMPLXG/DanceDB/20140805_NikosMichael/Nikos_Zeibekiko_C3D_stageii.npz
Output file: ../robot/ik_based/pkl/007775.pkl
Robot type: unitree_g1
Processing time: 213.52 seconds

STEP-BY-STEP TIMING:
  Step 1 - Load SMPLX:        6.86s
  Step 2 - Align FPS:         31.97s
  Step 3 - Init Retarget:     0.26s
  Step 4 - Init Visualization: 0.00s
  Step 5 - Process Frames:    174.35s (avg: 0.027s/frame)
  Step 6 - Convert Arrays:    0.02s
  Step 7 - Forward Kinematics: 0.04s
  Step 8 - Save Data:         0.01s
Status: SUCCESS
==================================================

=== FILE SUCCESS - 2025-10-14 15:15:25 ===
File index: 007775
File number: 36/10017
Input file: /data/retarget/locomotion/raw/AMASS_SMPLXG/DanceDB/20140805_NikosMichael/Nikos_Zeibekiko_C3D_stageii.npz
Output file: ../robot/ik_based/pkl/007775.pkl
Processing time: 213.52 seconds
Total file time: 216.18 seconds
Status: SUCCESS
==================================================

=== SUCCESS LOG - 2025-10-14 15:20:17 ===
Input file: /data/retarget/locomotion/raw/AMASS_SMPLXG/DanceDB/20140805_NikosMichael/Nikos_Zeibekiko_v2_C3D_stageii.npz
Output file: ../robot/ik_based/pkl/007776.pkl
Robot type: unitree_g1
Processing time: 291.48 seconds

STEP-BY-STEP TIMING:
  Step 1 - Load SMPLX:        6.79s
  Step 2 - Align FPS:         31.11s
  Step 3 - Init Retarget:     0.26s
  Step 4 - Init Visualization: 0.00s
  Step 5 - Process Frames:    253.22s (avg: 0.039s/frame)
  Step 6 - Convert Arrays:    0.02s
  Step 7 - Forward Kinematics: 0.05s
  Step 8 - Save Data:         0.01s
Status: SUCCESS
==================================================

=== FILE SUCCESS - 2025-10-14 15:20:20 ===
File index: 007776
File number: 37/10017
Input file: /data/retarget/locomotion/raw/AMASS_SMPLXG/DanceDB/20140805_NikosMichael/Nikos_Zeibekiko_v2_C3D_stageii.npz
Output file: ../robot/ik_based/pkl/007776.pkl
Processing time: 291.48 seconds
Total file time: 294.15 seconds
Status: SUCCESS
==================================================

=== ERROR LOG - 2025-10-14 15:20:20 ===
Input file: /data/retarget/locomotion/raw/AMASS_SMPLXG/DanceDB/20140805_NikosMichael/male_stagei.npz
Output file: ../robot/ik_based/pkl/007777.pkl
Robot type: unitree_g1
Processing time: 0.72 seconds
Error message: 'pose_body is not a file in the archive'
Error type: KeyError
==================================================

=== FILE FAILURE - 2025-10-14 15:20:20 ===
File index: 007777
File number: 38/10017
Input file: /data/retarget/locomotion/raw/AMASS_SMPLXG/DanceDB/20140805_NikosMichael/male_stagei.npz
Output file: ../robot/ik_based/pkl/007777.pkl
Processing time: 0.72 seconds
Total file time: 0.77 seconds
Status: FAILED
==================================================

=== SUCCESS LOG - 2025-10-14 15:22:52 ===
Input file: /data/retarget/locomotion/raw/AMASS_SMPLXG/DanceDB/20141230_MaritsaElia/Maritsa_Excited_C3D_stageii.npz
Output file: ../robot/ik_based/pkl/007778.pkl
Robot type: unitree_g1
Processing time: 151.97 seconds

STEP-BY-STEP TIMING:
  Step 1 - Load SMPLX:        3.83s
  Step 2 - Align FPS:         15.38s
  Step 3 - Init Retarget:     0.25s
  Step 4 - Init Visualization: 0.00s
  Step 5 - Process Frames:    132.43s (avg: 0.042s/frame)
  Step 6 - Convert Arrays:    0.01s
  Step 7 - Forward Kinematics: 0.05s
  Step 8 - Save Data:         0.01s
Status: SUCCESS
==================================================

=== FILE SUCCESS - 2025-10-14 15:22:54 ===
File index: 007778
File number: 39/10017
Input file: /data/retarget/locomotion/raw/AMASS_SMPLXG/DanceDB/20141230_MaritsaElia/Maritsa_Excited_C3D_stageii.npz
Output file: ../robot/ik_based/pkl/007778.pkl
Processing time: 151.97 seconds
Total file time: 153.36 seconds
Status: SUCCESS
==================================================

=== SUCCESS LOG - 2025-10-14 15:24:08 ===
Input file: /data/retarget/locomotion/raw/AMASS_SMPLXG/DanceDB/20141230_MaritsaElia/Maritsa_Happy_C3D_stageii.npz
Output file: ../robot/ik_based/pkl/007779.pkl
Robot type: unitree_g1
Processing time: 74.02 seconds

STEP-BY-STEP TIMING:
  Step 1 - Load SMPLX:        2.41s
  Step 2 - Align FPS:         7.45s
  Step 3 - Init Retarget:     0.26s
  Step 4 - Init Visualization: 0.00s
  Step 5 - Process Frames:    63.83s (avg: 0.041s/frame)
  Step 6 - Convert Arrays:    0.01s
  Step 7 - Forward Kinematics: 0.04s
  Step 8 - Save Data:         0.00s
Status: SUCCESS
==================================================

=== FILE SUCCESS - 2025-10-14 15:24:09 ===
File index: 007779
File number: 40/10017
Input file: /data/retarget/locomotion/raw/AMASS_SMPLXG/DanceDB/20141230_MaritsaElia/Maritsa_Happy_C3D_stageii.npz
Output file: ../robot/ik_based/pkl/007779.pkl
Processing time: 74.02 seconds
Total file time: 74.81 seconds
Status: SUCCESS
==================================================

=== SUCCESS LOG - 2025-10-14 15:26:54 ===
Input file: /data/retarget/locomotion/raw/AMASS_SMPLXG/DanceDB/20141230_MaritsaElia/Maritsa_Mix_C3D_stageii.npz
Output file: ../robot/ik_based/pkl/007780.pkl
Robot type: unitree_g1
Processing time: 165.75 seconds

STEP-BY-STEP TIMING:
  Step 1 - Load SMPLX:        4.59s
  Step 2 - Align FPS:         19.57s
  Step 3 - Init Retarget:     0.28s
  Step 4 - Init Visualization: 0.00s
  Step 5 - Process Frames:    141.24s (avg: 0.035s/frame)
  Step 6 - Convert Arrays:    0.01s
  Step 7 - Forward Kinematics: 0.03s
  Step 8 - Save Data:         0.01s
Status: SUCCESS
==================================================

=== FILE SUCCESS - 2025-10-14 15:26:56 ===
File index: 007780
File number: 41/10017
Input file: /data/retarget/locomotion/raw/AMASS_SMPLXG/DanceDB/20141230_MaritsaElia/Maritsa_Mix_C3D_stageii.npz
Output file: ../robot/ik_based/pkl/007780.pkl
Processing time: 165.75 seconds
Total file time: 167.37 seconds
Status: SUCCESS
==================================================

=== SUCCESS LOG - 2025-10-14 15:29:55 ===
Input file: /data/retarget/locomotion/raw/AMASS_SMPLXG/DanceDB/20141230_MaritsaElia/Maritsa_Relaxed_C3D_stageii.npz
Output file: ../robot/ik_based/pkl/007781.pkl
Robot type: unitree_g1
Processing time: 178.90 seconds

STEP-BY-STEP TIMING:
  Step 1 - Load SMPLX:        5.09s
  Step 2 - Align FPS:         21.31s
  Step 3 - Init Retarget:     0.27s
  Step 4 - Init Visualization: 0.00s
  Step 5 - Process Frames:    152.14s (avg: 0.036s/frame)
  Step 6 - Convert Arrays:    0.01s
  Step 7 - Forward Kinematics: 0.04s
  Step 8 - Save Data:         0.01s
Status: SUCCESS
==================================================

=== FILE SUCCESS - 2025-10-14 15:29:57 ===
File index: 007781
File number: 42/10017
Input file: /data/retarget/locomotion/raw/AMASS_SMPLXG/DanceDB/20141230_MaritsaElia/Maritsa_Relaxed_C3D_stageii.npz
Output file: ../robot/ik_based/pkl/007781.pkl
Processing time: 178.90 seconds
Total file time: 180.75 seconds
Status: SUCCESS
==================================================

=== SUCCESS LOG - 2025-10-14 15:32:09 ===
Input file: /data/retarget/locomotion/raw/AMASS_SMPLXG/DanceDB/20141230_MaritsaElia/Maritsa_Sad_C3D_stageii.npz
Output file: ../robot/ik_based/pkl/007782.pkl
Robot type: unitree_g1
Processing time: 131.97 seconds

STEP-BY-STEP TIMING:
  Step 1 - Load SMPLX:        3.90s
  Step 2 - Align FPS:         15.59s
  Step 3 - Init Retarget:     0.20s
  Step 4 - Init Visualization: 0.00s
  Step 5 - Process Frames:    112.19s (avg: 0.035s/frame)
  Step 6 - Convert Arrays:    0.01s
  Step 7 - Forward Kinematics: 0.04s
  Step 8 - Save Data:         0.01s
Status: SUCCESS
==================================================

=== FILE SUCCESS - 2025-10-14 15:32:10 ===
File index: 007782
File number: 43/10017
Input file: /data/retarget/locomotion/raw/AMASS_SMPLXG/DanceDB/20141230_MaritsaElia/Maritsa_Sad_C3D_stageii.npz
Output file: ../robot/ik_based/pkl/007782.pkl
Processing time: 131.97 seconds
Total file time: 133.59 seconds
Status: SUCCESS
==================================================

=== ERROR LOG - 2025-10-14 15:32:11 ===
Input file: /data/retarget/locomotion/raw/AMASS_SMPLXG/DanceDB/20141230_MaritsaElia/female_stagei.npz
Output file: ../robot/ik_based/pkl/007783.pkl
Robot type: unitree_g1
Processing time: 0.73 seconds
Error message: 'pose_body is not a file in the archive'
Error type: KeyError
==================================================

=== FILE FAILURE - 2025-10-14 15:32:11 ===
File index: 007783
File number: 44/10017
Input file: /data/retarget/locomotion/raw/AMASS_SMPLXG/DanceDB/20141230_MaritsaElia/female_stagei.npz
Output file: ../robot/ik_based/pkl/007783.pkl
Processing time: 0.73 seconds
Total file time: 0.79 seconds
Status: FAILED
==================================================

=== SUCCESS LOG - 2025-10-14 15:32:41 ===
Input file: /data/retarget/locomotion/raw/AMASS_SMPLXG/DanceDB/20150927_VasoAristeidou/Vasso_Afraid_v1_01_stageii.npz
Output file: ../robot/ik_based/pkl/007784.pkl
Robot type: unitree_g1
Processing time: 30.17 seconds

STEP-BY-STEP TIMING:
  Step 1 - Load SMPLX:        1.46s
  Step 2 - Align FPS:         2.87s
  Step 3 - Init Retarget:     0.31s
  Step 4 - Init Visualization: 0.00s
  Step 5 - Process Frames:    25.47s (avg: 0.043s/frame)
  Step 6 - Convert Arrays:    0.00s
  Step 7 - Forward Kinematics: 0.03s
  Step 8 - Save Data:         0.00s
Status: SUCCESS
==================================================

=== FILE SUCCESS - 2025-10-14 15:32:42 ===
File index: 007784
File number: 45/10017
Input file: /data/retarget/locomotion/raw/AMASS_SMPLXG/DanceDB/20150927_VasoAristeidou/Vasso_Afraid_v1_01_stageii.npz
Output file: ../robot/ik_based/pkl/007784.pkl
Processing time: 30.17 seconds
Total file time: 30.60 seconds
Status: SUCCESS
==================================================

=== SUCCESS LOG - 2025-10-14 15:33:13 ===
Input file: /data/retarget/locomotion/raw/AMASS_SMPLXG/DanceDB/20150927_VasoAristeidou/Vasso_Angry_v1_01_stageii.npz
Output file: ../robot/ik_based/pkl/007785.pkl
Robot type: unitree_g1
Processing time: 31.30 seconds

STEP-BY-STEP TIMING:
  Step 1 - Load SMPLX:        1.37s
  Step 2 - Align FPS:         2.99s
  Step 3 - Init Retarget:     0.21s
  Step 4 - Init Visualization: 0.00s
  Step 5 - Process Frames:    26.67s (avg: 0.046s/frame)
  Step 6 - Convert Arrays:    0.00s
  Step 7 - Forward Kinematics: 0.03s
  Step 8 - Save Data:         0.00s
Status: SUCCESS
==================================================

=== FILE SUCCESS - 2025-10-14 15:33:13 ===
File index: 007785
File number: 46/10017
Input file: /data/retarget/locomotion/raw/AMASS_SMPLXG/DanceDB/20150927_VasoAristeidou/Vasso_Angry_v1_01_stageii.npz
Output file: ../robot/ik_based/pkl/007785.pkl
Processing time: 31.30 seconds
Total file time: 31.77 seconds
Status: SUCCESS
==================================================

=== SUCCESS LOG - 2025-10-14 15:33:46 ===
Input file: /data/retarget/locomotion/raw/AMASS_SMPLXG/DanceDB/20150927_VasoAristeidou/Vasso_Annoyed_v1_01_stageii.npz
Output file: ../robot/ik_based/pkl/007786.pkl
Robot type: unitree_g1
Processing time: 32.26 seconds

STEP-BY-STEP TIMING:
  Step 1 - Load SMPLX:        1.40s
  Step 2 - Align FPS:         2.84s
  Step 3 - Init Retarget:     0.57s
  Step 4 - Init Visualization: 0.00s
  Step 5 - Process Frames:    27.40s (avg: 0.049s/frame)
  Step 6 - Convert Arrays:    0.00s
  Step 7 - Forward Kinematics: 0.03s
  Step 8 - Save Data:         0.00s
Status: SUCCESS
==================================================

=== FILE SUCCESS - 2025-10-14 15:33:46 ===
File index: 007786
File number: 47/10017
Input file: /data/retarget/locomotion/raw/AMASS_SMPLXG/DanceDB/20150927_VasoAristeidou/Vasso_Annoyed_v1_01_stageii.npz
Output file: ../robot/ik_based/pkl/007786.pkl
Processing time: 32.26 seconds
Total file time: 32.78 seconds
Status: SUCCESS
==================================================

=== SUCCESS LOG - 2025-10-14 15:34:19 ===
Input file: /data/retarget/locomotion/raw/AMASS_SMPLXG/DanceDB/20150927_VasoAristeidou/Vasso_Bored_v1_01_stageii.npz
Output file: ../robot/ik_based/pkl/007787.pkl
Robot type: unitree_g1
Processing time: 32.32 seconds

STEP-BY-STEP TIMING:
  Step 1 - Load SMPLX:        1.85s
  Step 2 - Align FPS:         4.67s
  Step 3 - Init Retarget:     0.23s
  Step 4 - Init Visualization: 0.00s
  Step 5 - Process Frames:    25.50s (avg: 0.027s/frame)
  Step 6 - Convert Arrays:    0.00s
  Step 7 - Forward Kinematics: 0.04s
  Step 8 - Save Data:         0.00s
Status: SUCCESS
==================================================

=== FILE SUCCESS - 2025-10-14 15:34:19 ===
File index: 007787
File number: 48/10017
Input file: /data/retarget/locomotion/raw/AMASS_SMPLXG/DanceDB/20150927_VasoAristeidou/Vasso_Bored_v1_01_stageii.npz
Output file: ../robot/ik_based/pkl/007787.pkl
Processing time: 32.32 seconds
Total file time: 33.03 seconds
Status: SUCCESS
==================================================

=== SUCCESS LOG - 2025-10-14 15:34:56 ===
Input file: /data/retarget/locomotion/raw/AMASS_SMPLXG/DanceDB/20150927_VasoAristeidou/Vasso_Excited_v1_01_stageii.npz
Output file: ../robot/ik_based/pkl/007788.pkl
Robot type: unitree_g1
Processing time: 36.55 seconds

STEP-BY-STEP TIMING:
  Step 1 - Load SMPLX:        1.47s
  Step 2 - Align FPS:         3.05s
  Step 3 - Init Retarget:     0.31s
  Step 4 - Init Visualization: 0.00s
  Step 5 - Process Frames:    31.66s (avg: 0.050s/frame)
  Step 6 - Convert Arrays:    0.00s
  Step 7 - Forward Kinematics: 0.04s
  Step 8 - Save Data:         0.00s
Status: SUCCESS
==================================================

=== FILE SUCCESS - 2025-10-14 15:34:56 ===
File index: 007788
File number: 49/10017
Input file: /data/retarget/locomotion/raw/AMASS_SMPLXG/DanceDB/20150927_VasoAristeidou/Vasso_Excited_v1_01_stageii.npz
Output file: ../robot/ik_based/pkl/007788.pkl
Processing time: 36.55 seconds
Total file time: 36.98 seconds
Status: SUCCESS
==================================================

=== SUCCESS LOG - 2025-10-14 15:35:27 ===
Input file: /data/retarget/locomotion/raw/AMASS_SMPLXG/DanceDB/20150927_VasoAristeidou/Vasso_Happy_v1_01_stageii.npz
Output file: ../robot/ik_based/pkl/007789.pkl
Robot type: unitree_g1
Processing time: 30.65 seconds

STEP-BY-STEP TIMING:
  Step 1 - Load SMPLX:        1.64s
  Step 2 - Align FPS:         3.31s
  Step 3 - Init Retarget:     0.27s
  Step 4 - Init Visualization: 0.00s
  Step 5 - Process Frames:    25.35s (avg: 0.037s/frame)
  Step 6 - Convert Arrays:    0.00s
  Step 7 - Forward Kinematics: 0.04s
  Step 8 - Save Data:         0.00s
Status: SUCCESS
==================================================

=== FILE SUCCESS - 2025-10-14 15:35:27 ===
File index: 007789
File number: 50/10017
Input file: /data/retarget/locomotion/raw/AMASS_SMPLXG/DanceDB/20150927_VasoAristeidou/Vasso_Happy_v1_01_stageii.npz
Output file: ../robot/ik_based/pkl/007789.pkl
Processing time: 30.65 seconds
Total file time: 31.04 seconds
Status: SUCCESS
==================================================

=== SUCCESS LOG - 2025-10-14 15:36:07 ===
Input file: /data/retarget/locomotion/raw/AMASS_SMPLXG/DanceDB/20150927_VasoAristeidou/Vasso_Miserable_v1_01_stageii.npz
Output file: ../robot/ik_based/pkl/007790.pkl
Robot type: unitree_g1
Processing time: 39.90 seconds

STEP-BY-STEP TIMING:
  Step 1 - Load SMPLX:        1.67s
  Step 2 - Align FPS:         3.85s
  Step 3 - Init Retarget:     0.18s
  Step 4 - Init Visualization: 0.00s
  Step 5 - Process Frames:    34.12s (avg: 0.045s/frame)
  Step 6 - Convert Arrays:    0.00s
  Step 7 - Forward Kinematics: 0.04s
  Step 8 - Save Data:         0.00s
Status: SUCCESS
==================================================

=== FILE SUCCESS - 2025-10-14 15:36:08 ===
File index: 007790
File number: 51/10017
Input file: /data/retarget/locomotion/raw/AMASS_SMPLXG/DanceDB/20150927_VasoAristeidou/Vasso_Miserable_v1_01_stageii.npz
Output file: ../robot/ik_based/pkl/007790.pkl
Processing time: 39.90 seconds
Total file time: 40.52 seconds
Status: SUCCESS
==================================================

=== SUCCESS LOG - 2025-10-14 15:36:31 ===
Input file: /data/retarget/locomotion/raw/AMASS_SMPLXG/DanceDB/20150927_VasoAristeidou/Vasso_Neutral_v2_01_stageii.npz
Output file: ../robot/ik_based/pkl/007791.pkl
Robot type: unitree_g1
Processing time: 22.81 seconds

STEP-BY-STEP TIMING:
  Step 1 - Load SMPLX:        1.49s
  Step 2 - Align FPS:         2.96s
  Step 3 - Init Retarget:     0.31s
  Step 4 - Init Visualization: 0.00s
  Step 5 - Process Frames:    17.98s (avg: 0.030s/frame)
  Step 6 - Convert Arrays:    0.00s
  Step 7 - Forward Kinematics: 0.03s
  Step 8 - Save Data:         0.00s
Status: SUCCESS
==================================================

=== FILE SUCCESS - 2025-10-14 15:36:31 ===
File index: 007791
File number: 52/10017
Input file: /data/retarget/locomotion/raw/AMASS_SMPLXG/DanceDB/20150927_VasoAristeidou/Vasso_Neutral_v2_01_stageii.npz
Output file: ../robot/ik_based/pkl/007791.pkl
Processing time: 22.81 seconds
Total file time: 23.32 seconds
Status: SUCCESS
==================================================

=== SUCCESS LOG - 2025-10-14 15:37:06 ===
Input file: /data/retarget/locomotion/raw/AMASS_SMPLXG/DanceDB/20150927_VasoAristeidou/Vasso_Neutral_v3_01_stageii.npz
Output file: ../robot/ik_based/pkl/007792.pkl
Robot type: unitree_g1
Processing time: 35.11 seconds

STEP-BY-STEP TIMING:
  Step 1 - Load SMPLX:        1.46s
  Step 2 - Align FPS:         3.06s
  Step 3 - Init Retarget:     0.24s
  Step 4 - Init Visualization: 0.00s
  Step 5 - Process Frames:    30.29s (avg: 0.047s/frame)
  Step 6 - Convert Arrays:    0.00s
  Step 7 - Forward Kinematics: 0.03s
  Step 8 - Save Data:         0.00s
Status: SUCCESS
==================================================

=== FILE SUCCESS - 2025-10-14 15:37:07 ===
File index: 007792
File number: 53/10017
Input file: /data/retarget/locomotion/raw/AMASS_SMPLXG/DanceDB/20150927_VasoAristeidou/Vasso_Neutral_v3_01_stageii.npz
Output file: ../robot/ik_based/pkl/007792.pkl
Processing time: 35.11 seconds
Total file time: 35.62 seconds
Status: SUCCESS
==================================================

=== SUCCESS LOG - 2025-10-14 15:37:36 ===
Input file: /data/retarget/locomotion/raw/AMASS_SMPLXG/DanceDB/20150927_VasoAristeidou/Vasso_Neutral_v4_01_stageii.npz
Output file: ../robot/ik_based/pkl/007793.pkl
Robot type: unitree_g1
Processing time: 28.71 seconds

STEP-BY-STEP TIMING:
  Step 1 - Load SMPLX:        1.32s
  Step 2 - Align FPS:         2.70s
  Step 3 - Init Retarget:     0.22s
  Step 4 - Init Visualization: 0.00s
  Step 5 - Process Frames:    24.40s (avg: 0.045s/frame)
  Step 6 - Convert Arrays:    0.00s
  Step 7 - Forward Kinematics: 0.03s
  Step 8 - Save Data:         0.00s
Status: SUCCESS
==================================================

=== FILE SUCCESS - 2025-10-14 15:37:36 ===
File index: 007793
File number: 54/10017
Input file: /data/retarget/locomotion/raw/AMASS_SMPLXG/DanceDB/20150927_VasoAristeidou/Vasso_Neutral_v4_01_stageii.npz
Output file: ../robot/ik_based/pkl/007793.pkl
Processing time: 28.71 seconds
Total file time: 29.27 seconds
Status: SUCCESS
==================================================

=== SUCCESS LOG - 2025-10-14 15:39:49 ===
Input file: /data/retarget/locomotion/raw/AMASS_SMPLXG/DanceDB/20150927_VasoAristeidou/Vasso_Pleased_01_stageii.npz
Output file: ../robot/ik_based/pkl/007794.pkl
Robot type: unitree_g1
Processing time: 132.95 seconds

STEP-BY-STEP TIMING:
  Step 1 - Load SMPLX:        3.88s
  Step 2 - Align FPS:         15.75s
  Step 3 - Init Retarget:     0.19s
  Step 4 - Init Visualization: 0.00s
  Step 5 - Process Frames:    113.03s (avg: 0.036s/frame)
  Step 6 - Convert Arrays:    0.01s
  Step 7 - Forward Kinematics: 0.07s
  Step 8 - Save Data:         0.00s
Status: SUCCESS
==================================================

=== FILE SUCCESS - 2025-10-14 15:39:50 ===
File index: 007794
File number: 55/10017
Input file: /data/retarget/locomotion/raw/AMASS_SMPLXG/DanceDB/20150927_VasoAristeidou/Vasso_Pleased_01_stageii.npz
Output file: ../robot/ik_based/pkl/007794.pkl
Processing time: 132.95 seconds
Total file time: 134.32 seconds
Status: SUCCESS
==================================================

=== SUCCESS LOG - 2025-10-14 15:40:20 ===
Input file: /data/retarget/locomotion/raw/AMASS_SMPLXG/DanceDB/20150927_VasoAristeidou/Vasso_Relaxed_v1_01_stageii.npz
Output file: ../robot/ik_based/pkl/007795.pkl
Robot type: unitree_g1
Processing time: 29.29 seconds

STEP-BY-STEP TIMING:
  Step 1 - Load SMPLX:        1.71s
  Step 2 - Align FPS:         4.48s
  Step 3 - Init Retarget:     0.28s
  Step 4 - Init Visualization: 0.00s
  Step 5 - Process Frames:    22.66s (avg: 0.025s/frame)
  Step 6 - Convert Arrays:    0.00s
  Step 7 - Forward Kinematics: 0.12s
  Step 8 - Save Data:         0.00s
Status: SUCCESS
==================================================

=== FILE SUCCESS - 2025-10-14 15:40:20 ===
File index: 007795
File number: 56/10017
Input file: /data/retarget/locomotion/raw/AMASS_SMPLXG/DanceDB/20150927_VasoAristeidou/Vasso_Relaxed_v1_01_stageii.npz
Output file: ../robot/ik_based/pkl/007795.pkl
Processing time: 29.29 seconds
Total file time: 29.78 seconds
Status: SUCCESS
==================================================

=== SUCCESS LOG - 2025-10-14 15:41:13 ===
Input file: /data/retarget/locomotion/raw/AMASS_SMPLXG/DanceDB/20150927_VasoAristeidou/Vasso_Sad_v1_01_stageii.npz
Output file: ../robot/ik_based/pkl/007796.pkl
Robot type: unitree_g1
Processing time: 52.50 seconds

STEP-BY-STEP TIMING:
  Step 1 - Load SMPLX:        1.83s
  Step 2 - Align FPS:         4.75s
  Step 3 - Init Retarget:     0.28s
  Step 4 - Init Visualization: 0.00s
  Step 5 - Process Frames:    45.58s (avg: 0.046s/frame)
  Step 6 - Convert Arrays:    0.00s
  Step 7 - Forward Kinematics: 0.04s
  Step 8 - Save Data:         0.00s
Status: SUCCESS
==================================================

=== FILE SUCCESS - 2025-10-14 15:41:13 ===
File index: 007796
File number: 57/10017
Input file: /data/retarget/locomotion/raw/AMASS_SMPLXG/DanceDB/20150927_VasoAristeidou/Vasso_Sad_v1_01_stageii.npz
Output file: ../robot/ik_based/pkl/007796.pkl
Processing time: 52.50 seconds
Total file time: 53.18 seconds
Status: SUCCESS
==================================================

=== SUCCESS LOG - 2025-10-14 15:41:57 ===
Input file: /data/retarget/locomotion/raw/AMASS_SMPLXG/DanceDB/20150927_VasoAristeidou/Vasso_Satisfied_v1_01_stageii.npz
Output file: ../robot/ik_based/pkl/007797.pkl
Robot type: unitree_g1
Processing time: 43.67 seconds

STEP-BY-STEP TIMING:
  Step 1 - Load SMPLX:        1.61s
  Step 2 - Align FPS:         3.80s
  Step 3 - Init Retarget:     0.18s
  Step 4 - Init Visualization: 0.00s
  Step 5 - Process Frames:    38.01s (avg: 0.048s/frame)
  Step 6 - Convert Arrays:    0.00s
  Step 7 - Forward Kinematics: 0.03s
  Step 8 - Save Data:         0.00s
Status: SUCCESS
==================================================

=== FILE SUCCESS - 2025-10-14 15:41:58 ===
File index: 007797
File number: 58/10017
Input file: /data/retarget/locomotion/raw/AMASS_SMPLXG/DanceDB/20150927_VasoAristeidou/Vasso_Satisfied_v1_01_stageii.npz
Output file: ../robot/ik_based/pkl/007797.pkl
Processing time: 43.67 seconds
Total file time: 44.29 seconds
Status: SUCCESS
==================================================

=== SUCCESS LOG - 2025-10-14 15:42:35 ===
Input file: /data/retarget/locomotion/raw/AMASS_SMPLXG/DanceDB/20150927_VasoAristeidou/Vasso_Tired_v1_stageii.npz
Output file: ../robot/ik_based/pkl/007798.pkl
Robot type: unitree_g1
Processing time: 37.64 seconds

STEP-BY-STEP TIMING:
  Step 1 - Load SMPLX:        2.16s
  Step 2 - Align FPS:         5.53s
  Step 3 - Init Retarget:     0.50s
  Step 4 - Init Visualization: 0.00s
  Step 5 - Process Frames:    29.29s (avg: 0.026s/frame)
  Step 6 - Convert Arrays:    0.00s
  Step 7 - Forward Kinematics: 0.13s
  Step 8 - Save Data:         0.00s
Status: SUCCESS
==================================================

=== FILE SUCCESS - 2025-10-14 15:42:36 ===
File index: 007798
File number: 59/10017
Input file: /data/retarget/locomotion/raw/AMASS_SMPLXG/DanceDB/20150927_VasoAristeidou/Vasso_Tired_v1_stageii.npz
Output file: ../robot/ik_based/pkl/007798.pkl
Processing time: 37.64 seconds
Total file time: 38.45 seconds
Status: SUCCESS
==================================================

=== ERROR LOG - 2025-10-14 15:42:37 ===
Input file: /data/retarget/locomotion/raw/AMASS_SMPLXG/DanceDB/20150927_VasoAristeidou/female_stagei.npz
Output file: ../robot/ik_based/pkl/007799.pkl
Robot type: unitree_g1
Processing time: 0.75 seconds
Error message: 'pose_body is not a file in the archive'
Error type: KeyError
==================================================

=== FILE FAILURE - 2025-10-14 15:42:37 ===
File index: 007799
File number: 60/10017
Input file: /data/retarget/locomotion/raw/AMASS_SMPLXG/DanceDB/20150927_VasoAristeidou/female_stagei.npz
Output file: ../robot/ik_based/pkl/007799.pkl
Processing time: 0.75 seconds
Total file time: 0.85 seconds
Status: FAILED
==================================================

=== SUCCESS LOG - 2025-10-14 15:43:16 ===
Input file: /data/retarget/locomotion/raw/AMASS_SMPLXG/DanceDB/20151003_AndriaMichaelidou/Andria_Afraid_v1_C3D_stageii.npz
Output file: ../robot/ik_based/pkl/007800.pkl
Robot type: unitree_g1
Processing time: 38.77 seconds

STEP-BY-STEP TIMING:
  Step 1 - Load SMPLX:        1.84s
  Step 2 - Align FPS:         4.26s
  Step 3 - Init Retarget:     0.20s
  Step 4 - Init Visualization: 0.00s
  Step 5 - Process Frames:    32.41s (avg: 0.037s/frame)
  Step 6 - Convert Arrays:    0.00s
  Step 7 - Forward Kinematics: 0.03s
  Step 8 - Save Data:         0.00s
Status: SUCCESS
==================================================

=== FILE SUCCESS - 2025-10-14 15:43:16 ===
File index: 007800
File number: 61/10017
Input file: /data/retarget/locomotion/raw/AMASS_SMPLXG/DanceDB/20151003_AndriaMichaelidou/Andria_Afraid_v1_C3D_stageii.npz
Output file: ../robot/ik_based/pkl/007800.pkl
Processing time: 38.77 seconds
Total file time: 39.43 seconds
Status: SUCCESS
==================================================

=== SUCCESS LOG - 2025-10-14 15:43:49 ===
Input file: /data/retarget/locomotion/raw/AMASS_SMPLXG/DanceDB/20151003_AndriaMichaelidou/Andria_Afraid_v2_C3D_stageii.npz
Output file: ../robot/ik_based/pkl/007801.pkl
Robot type: unitree_g1
Processing time: 32.71 seconds

STEP-BY-STEP TIMING:
  Step 1 - Load SMPLX:        1.69s
  Step 2 - Align FPS:         4.11s
  Step 3 - Init Retarget:     0.14s
  Step 4 - Init Visualization: 0.00s
  Step 5 - Process Frames:    26.71s (avg: 0.031s/frame)
  Step 6 - Convert Arrays:    0.00s
  Step 7 - Forward Kinematics: 0.03s
  Step 8 - Save Data:         0.00s
Status: SUCCESS
==================================================

=== FILE SUCCESS - 2025-10-14 15:43:50 ===
File index: 007801
File number: 62/10017
Input file: /data/retarget/locomotion/raw/AMASS_SMPLXG/DanceDB/20151003_AndriaMichaelidou/Andria_Afraid_v2_C3D_stageii.npz
Output file: ../robot/ik_based/pkl/007801.pkl
Processing time: 32.71 seconds
Total file time: 33.24 seconds
Status: SUCCESS
==================================================

=== SUCCESS LOG - 2025-10-14 15:44:33 ===
Input file: /data/retarget/locomotion/raw/AMASS_SMPLXG/DanceDB/20151003_AndriaMichaelidou/Andria_Angry_v1_C3D_stageii.npz
Output file: ../robot/ik_based/pkl/007802.pkl
Robot type: unitree_g1
Processing time: 43.40 seconds

STEP-BY-STEP TIMING:
  Step 1 - Load SMPLX:        1.71s
  Step 2 - Align FPS:         4.12s
  Step 3 - Init Retarget:     0.13s
  Step 4 - Init Visualization: 0.00s
  Step 5 - Process Frames:    37.38s (avg: 0.044s/frame)
  Step 6 - Convert Arrays:    0.00s
  Step 7 - Forward Kinematics: 0.03s
  Step 8 - Save Data:         0.00s
Status: SUCCESS
==================================================

=== FILE SUCCESS - 2025-10-14 15:44:34 ===
File index: 007802
File number: 63/10017
Input file: /data/retarget/locomotion/raw/AMASS_SMPLXG/DanceDB/20151003_AndriaMichaelidou/Andria_Angry_v1_C3D_stageii.npz
Output file: ../robot/ik_based/pkl/007802.pkl
Processing time: 43.40 seconds
Total file time: 43.94 seconds
Status: SUCCESS
==================================================

=== SUCCESS LOG - 2025-10-14 15:45:05 ===
Input file: /data/retarget/locomotion/raw/AMASS_SMPLXG/DanceDB/20151003_AndriaMichaelidou/Andria_Angry_v2_C3D_stageii.npz
Output file: ../robot/ik_based/pkl/007803.pkl
Robot type: unitree_g1
Processing time: 30.93 seconds

STEP-BY-STEP TIMING:
  Step 1 - Load SMPLX:        1.41s
  Step 2 - Align FPS:         3.03s
  Step 3 - Init Retarget:     0.39s
  Step 4 - Init Visualization: 0.00s
  Step 5 - Process Frames:    26.03s (avg: 0.042s/frame)
  Step 6 - Convert Arrays:    0.00s
  Step 7 - Forward Kinematics: 0.03s
  Step 8 - Save Data:         0.00s
Status: SUCCESS
==================================================

=== FILE SUCCESS - 2025-10-14 15:45:05 ===
File index: 007803
File number: 64/10017
Input file: /data/retarget/locomotion/raw/AMASS_SMPLXG/DanceDB/20151003_AndriaMichaelidou/Andria_Angry_v2_C3D_stageii.npz
Output file: ../robot/ik_based/pkl/007803.pkl
Processing time: 30.93 seconds
Total file time: 31.41 seconds
Status: SUCCESS
==================================================

=== SUCCESS LOG - 2025-10-14 15:45:38 ===
Input file: /data/retarget/locomotion/raw/AMASS_SMPLXG/DanceDB/20151003_AndriaMichaelidou/Andria_Annoyed_v1_C3D_stageii.npz
Output file: ../robot/ik_based/pkl/007804.pkl
Robot type: unitree_g1
Processing time: 32.59 seconds

STEP-BY-STEP TIMING:
  Step 1 - Load SMPLX:        1.54s
  Step 2 - Align FPS:         3.43s
  Step 3 - Init Retarget:     0.40s
  Step 4 - Init Visualization: 0.00s
  Step 5 - Process Frames:    27.16s (avg: 0.037s/frame)
  Step 6 - Convert Arrays:    0.00s
  Step 7 - Forward Kinematics: 0.03s
  Step 8 - Save Data:         0.00s
Status: SUCCESS
==================================================

=== FILE SUCCESS - 2025-10-14 15:45:38 ===
File index: 007804
File number: 65/10017
Input file: /data/retarget/locomotion/raw/AMASS_SMPLXG/DanceDB/20151003_AndriaMichaelidou/Andria_Annoyed_v1_C3D_stageii.npz
Output file: ../robot/ik_based/pkl/007804.pkl
Processing time: 32.59 seconds
Total file time: 33.14 seconds
Status: SUCCESS
==================================================

=== SUCCESS LOG - 2025-10-14 15:46:04 ===
Input file: /data/retarget/locomotion/raw/AMASS_SMPLXG/DanceDB/20151003_AndriaMichaelidou/Andria_Annoyed_v2_C3D_stageii.npz
Output file: ../robot/ik_based/pkl/007805.pkl
Robot type: unitree_g1
Processing time: 25.98 seconds

STEP-BY-STEP TIMING:
  Step 1 - Load SMPLX:        1.47s
  Step 2 - Align FPS:         3.06s
  Step 3 - Init Retarget:     0.18s
  Step 4 - Init Visualization: 0.00s
  Step 5 - Process Frames:    21.21s (avg: 0.033s/frame)
  Step 6 - Convert Arrays:    0.00s
  Step 7 - Forward Kinematics: 0.03s
  Step 8 - Save Data:         0.00s
Status: SUCCESS
==================================================

=== FILE SUCCESS - 2025-10-14 15:46:05 ===
File index: 007805
File number: 66/10017
Input file: /data/retarget/locomotion/raw/AMASS_SMPLXG/DanceDB/20151003_AndriaMichaelidou/Andria_Annoyed_v2_C3D_stageii.npz
Output file: ../robot/ik_based/pkl/007805.pkl
Processing time: 25.98 seconds
Total file time: 26.52 seconds
Status: SUCCESS
==================================================

=== SUCCESS LOG - 2025-10-14 15:46:54 ===
Input file: /data/retarget/locomotion/raw/AMASS_SMPLXG/DanceDB/20151003_AndriaMichaelidou/Andria_Bored_v1_C3D_stageii.npz
Output file: ../robot/ik_based/pkl/007806.pkl
Robot type: unitree_g1
Processing time: 49.44 seconds

STEP-BY-STEP TIMING:
  Step 1 - Load SMPLX:        1.87s
  Step 2 - Align FPS:         5.11s
  Step 3 - Init Retarget:     0.30s
  Step 4 - Init Visualization: 0.00s
  Step 5 - Process Frames:    42.10s (avg: 0.042s/frame)
  Step 6 - Convert Arrays:    0.00s
  Step 7 - Forward Kinematics: 0.03s
  Step 8 - Save Data:         0.00s
Status: SUCCESS
==================================================

=== FILE SUCCESS - 2025-10-14 15:46:55 ===
File index: 007806
File number: 67/10017
Input file: /data/retarget/locomotion/raw/AMASS_SMPLXG/DanceDB/20151003_AndriaMichaelidou/Andria_Bored_v1_C3D_stageii.npz
Output file: ../robot/ik_based/pkl/007806.pkl
Processing time: 49.44 seconds
Total file time: 50.13 seconds
Status: SUCCESS
==================================================

=== SUCCESS LOG - 2025-10-14 15:47:22 ===
Input file: /data/retarget/locomotion/raw/AMASS_SMPLXG/DanceDB/20151003_AndriaMichaelidou/Andria_Bored_v2_C3D_stageii.npz
Output file: ../robot/ik_based/pkl/007807.pkl
Robot type: unitree_g1
Processing time: 27.56 seconds

STEP-BY-STEP TIMING:
  Step 1 - Load SMPLX:        1.67s
  Step 2 - Align FPS:         4.11s
  Step 3 - Init Retarget:     0.20s
  Step 4 - Init Visualization: 0.00s
  Step 5 - Process Frames:    21.52s (avg: 0.028s/frame)
  Step 6 - Convert Arrays:    0.00s
  Step 7 - Forward Kinematics: 0.03s
  Step 8 - Save Data:         0.00s
Status: SUCCESS
==================================================

=== FILE SUCCESS - 2025-10-14 15:47:23 ===
File index: 007807
File number: 68/10017
Input file: /data/retarget/locomotion/raw/AMASS_SMPLXG/DanceDB/20151003_AndriaMichaelidou/Andria_Bored_v2_C3D_stageii.npz
Output file: ../robot/ik_based/pkl/007807.pkl
Processing time: 27.56 seconds
Total file time: 28.15 seconds
Status: SUCCESS
==================================================

=== SUCCESS LOG - 2025-10-14 15:48:04 ===
Input file: /data/retarget/locomotion/raw/AMASS_SMPLXG/DanceDB/20151003_AndriaMichaelidou/Andria_Excited_v1_C3D_stageii.npz
Output file: ../robot/ik_based/pkl/007808.pkl
Robot type: unitree_g1
Processing time: 41.39 seconds

STEP-BY-STEP TIMING:
  Step 1 - Load SMPLX:        1.66s
  Step 2 - Align FPS:         3.97s
  Step 3 - Init Retarget:     0.53s
  Step 4 - Init Visualization: 0.00s
  Step 5 - Process Frames:    34.98s (avg: 0.042s/frame)
  Step 6 - Convert Arrays:    0.01s
  Step 7 - Forward Kinematics: 0.23s
  Step 8 - Save Data:         0.00s
Status: SUCCESS
==================================================

=== FILE SUCCESS - 2025-10-14 15:48:05 ===
File index: 007808
File number: 69/10017
Input file: /data/retarget/locomotion/raw/AMASS_SMPLXG/DanceDB/20151003_AndriaMichaelidou/Andria_Excited_v1_C3D_stageii.npz
Output file: ../robot/ik_based/pkl/007808.pkl
Processing time: 41.39 seconds
Total file time: 42.07 seconds
Status: SUCCESS
==================================================

=== SUCCESS LOG - 2025-10-14 15:48:43 ===
Input file: /data/retarget/locomotion/raw/AMASS_SMPLXG/DanceDB/20151003_AndriaMichaelidou/Andria_Excited_v2_C3D_stageii.npz
Output file: ../robot/ik_based/pkl/007809.pkl
Robot type: unitree_g1
Processing time: 38.04 seconds

STEP-BY-STEP TIMING:
  Step 1 - Load SMPLX:        1.68s
  Step 2 - Align FPS:         3.59s
  Step 3 - Init Retarget:     0.33s
  Step 4 - Init Visualization: 0.00s
  Step 5 - Process Frames:    32.37s (avg: 0.043s/frame)
  Step 6 - Convert Arrays:    0.00s
  Step 7 - Forward Kinematics: 0.04s
  Step 8 - Save Data:         0.00s
Status: SUCCESS
==================================================

=== FILE SUCCESS - 2025-10-14 15:48:44 ===
File index: 007809
File number: 70/10017
Input file: /data/retarget/locomotion/raw/AMASS_SMPLXG/DanceDB/20151003_AndriaMichaelidou/Andria_Excited_v2_C3D_stageii.npz
Output file: ../robot/ik_based/pkl/007809.pkl
Processing time: 38.04 seconds
Total file time: 38.63 seconds
Status: SUCCESS
==================================================

=== SUCCESS LOG - 2025-10-14 15:49:17 ===
Input file: /data/retarget/locomotion/raw/AMASS_SMPLXG/DanceDB/20151003_AndriaMichaelidou/Andria_Happy_v1_C3D_stageii.npz
Output file: ../robot/ik_based/pkl/007810.pkl
Robot type: unitree_g1
Processing time: 33.36 seconds

STEP-BY-STEP TIMING:
  Step 1 - Load SMPLX:        1.67s
  Step 2 - Align FPS:         3.83s
  Step 3 - Init Retarget:     0.18s
  Step 4 - Init Visualization: 0.00s
  Step 5 - Process Frames:    27.61s (avg: 0.034s/frame)
  Step 6 - Convert Arrays:    0.00s
  Step 7 - Forward Kinematics: 0.04s
  Step 8 - Save Data:         0.00s
Status: SUCCESS
==================================================

=== FILE SUCCESS - 2025-10-14 15:49:18 ===
File index: 007810
File number: 71/10017
Input file: /data/retarget/locomotion/raw/AMASS_SMPLXG/DanceDB/20151003_AndriaMichaelidou/Andria_Happy_v1_C3D_stageii.npz
Output file: ../robot/ik_based/pkl/007810.pkl
Processing time: 33.36 seconds
Total file time: 33.88 seconds
Status: SUCCESS
==================================================

=== SUCCESS LOG - 2025-10-14 15:49:54 ===
Input file: /data/retarget/locomotion/raw/AMASS_SMPLXG/DanceDB/20151003_AndriaMichaelidou/Andria_Happy_v2_C3D_stageii.npz
Output file: ../robot/ik_based/pkl/007811.pkl
Robot type: unitree_g1
Processing time: 36.85 seconds

STEP-BY-STEP TIMING:
  Step 1 - Load SMPLX:        1.70s
  Step 2 - Align FPS:         4.24s
  Step 3 - Init Retarget:     0.14s
  Step 4 - Init Visualization: 0.00s
  Step 5 - Process Frames:    30.69s (avg: 0.035s/frame)
  Step 6 - Convert Arrays:    0.01s
  Step 7 - Forward Kinematics: 0.04s
  Step 8 - Save Data:         0.00s
Status: SUCCESS
==================================================

=== FILE SUCCESS - 2025-10-14 15:49:55 ===
File index: 007811
File number: 72/10017
Input file: /data/retarget/locomotion/raw/AMASS_SMPLXG/DanceDB/20151003_AndriaMichaelidou/Andria_Happy_v2_C3D_stageii.npz
Output file: ../robot/ik_based/pkl/007811.pkl
Processing time: 36.85 seconds
Total file time: 37.41 seconds
Status: SUCCESS
==================================================

=== SUCCESS LOG - 2025-10-14 15:50:29 ===
Input file: /data/retarget/locomotion/raw/AMASS_SMPLXG/DanceDB/20151003_AndriaMichaelidou/Andria_Miserable_v1_C3D_stageii.npz
Output file: ../robot/ik_based/pkl/007812.pkl
Robot type: unitree_g1
Processing time: 34.51 seconds

STEP-BY-STEP TIMING:
  Step 1 - Load SMPLX:        1.90s
  Step 2 - Align FPS:         4.54s
  Step 3 - Init Retarget:     0.27s
  Step 4 - Init Visualization: 0.00s
  Step 5 - Process Frames:    27.73s (avg: 0.029s/frame)
  Step 6 - Convert Arrays:    0.00s
  Step 7 - Forward Kinematics: 0.04s
  Step 8 - Save Data:         0.00s
Status: SUCCESS
==================================================

=== FILE SUCCESS - 2025-10-14 15:50:30 ===
File index: 007812
File number: 73/10017
Input file: /data/retarget/locomotion/raw/AMASS_SMPLXG/DanceDB/20151003_AndriaMichaelidou/Andria_Miserable_v1_C3D_stageii.npz
Output file: ../robot/ik_based/pkl/007812.pkl
Processing time: 34.51 seconds
Total file time: 35.23 seconds
Status: SUCCESS
==================================================

=== SUCCESS LOG - 2025-10-14 15:51:13 ===
Input file: /data/retarget/locomotion/raw/AMASS_SMPLXG/DanceDB/20151003_AndriaMichaelidou/Andria_Pleased_v1_C3D_stageii.npz
Output file: ../robot/ik_based/pkl/007813.pkl
Robot type: unitree_g1
Processing time: 42.72 seconds

STEP-BY-STEP TIMING:
  Step 1 - Load SMPLX:        2.05s
  Step 2 - Align FPS:         5.36s
  Step 3 - Init Retarget:     0.18s
  Step 4 - Init Visualization: 0.00s
  Step 5 - Process Frames:    35.05s (avg: 0.032s/frame)
  Step 6 - Convert Arrays:    0.01s
  Step 7 - Forward Kinematics: 0.04s
  Step 8 - Save Data:         0.00s
Status: SUCCESS
==================================================

=== FILE SUCCESS - 2025-10-14 15:51:14 ===
File index: 007813
File number: 74/10017
Input file: /data/retarget/locomotion/raw/AMASS_SMPLXG/DanceDB/20151003_AndriaMichaelidou/Andria_Pleased_v1_C3D_stageii.npz
Output file: ../robot/ik_based/pkl/007813.pkl
Processing time: 42.72 seconds
Total file time: 43.43 seconds
Status: SUCCESS
==================================================

=== SUCCESS LOG - 2025-10-14 15:51:47 ===
Input file: /data/retarget/locomotion/raw/AMASS_SMPLXG/DanceDB/20151003_AndriaMichaelidou/Andria_Pleased_v2_C3D_stageii.npz
Output file: ../robot/ik_based/pkl/007814.pkl
Robot type: unitree_g1
Processing time: 33.13 seconds

STEP-BY-STEP TIMING:
  Step 1 - Load SMPLX:        1.68s
  Step 2 - Align FPS:         3.99s
  Step 3 - Init Retarget:     0.23s
  Step 4 - Init Visualization: 0.00s
  Step 5 - Process Frames:    27.18s (avg: 0.033s/frame)
  Step 6 - Convert Arrays:    0.00s
  Step 7 - Forward Kinematics: 0.03s
  Step 8 - Save Data:         0.00s
Status: SUCCESS
==================================================

=== FILE SUCCESS - 2025-10-14 15:51:47 ===
File index: 007814
File number: 75/10017
Input file: /data/retarget/locomotion/raw/AMASS_SMPLXG/DanceDB/20151003_AndriaMichaelidou/Andria_Pleased_v2_C3D_stageii.npz
Output file: ../robot/ik_based/pkl/007814.pkl
Processing time: 33.13 seconds
Total file time: 33.69 seconds
Status: SUCCESS
==================================================

=== SUCCESS LOG - 2025-10-14 15:52:27 ===
Input file: /data/retarget/locomotion/raw/AMASS_SMPLXG/DanceDB/20151003_AndriaMichaelidou/Andria_Relaxed_v1_C3D_stageii.npz
Output file: ../robot/ik_based/pkl/007815.pkl
Robot type: unitree_g1
Processing time: 40.12 seconds

STEP-BY-STEP TIMING:
  Step 1 - Load SMPLX:        1.91s
  Step 2 - Align FPS:         5.23s
  Step 3 - Init Retarget:     0.17s
  Step 4 - Init Visualization: 0.00s
  Step 5 - Process Frames:    32.73s (avg: 0.031s/frame)
  Step 6 - Convert Arrays:    0.01s
  Step 7 - Forward Kinematics: 0.04s
  Step 8 - Save Data:         0.00s
Status: SUCCESS
==================================================

=== FILE SUCCESS - 2025-10-14 15:52:28 ===
File index: 007815
File number: 76/10017
Input file: /data/retarget/locomotion/raw/AMASS_SMPLXG/DanceDB/20151003_AndriaMichaelidou/Andria_Relaxed_v1_C3D_stageii.npz
Output file: ../robot/ik_based/pkl/007815.pkl
Processing time: 40.12 seconds
Total file time: 40.84 seconds
Status: SUCCESS
==================================================

=== SUCCESS LOG - 2025-10-14 15:52:50 ===
Input file: /data/retarget/locomotion/raw/AMASS_SMPLXG/DanceDB/20151003_AndriaMichaelidou/Andria_Relaxed_v2_C3D_stageii.npz
Output file: ../robot/ik_based/pkl/007816.pkl
Robot type: unitree_g1
Processing time: 22.04 seconds

STEP-BY-STEP TIMING:
  Step 1 - Load SMPLX:        1.45s
  Step 2 - Align FPS:         2.84s
  Step 3 - Init Retarget:     0.30s
  Step 4 - Init Visualization: 0.00s
  Step 5 - Process Frames:    17.40s (avg: 0.030s/frame)
  Step 6 - Convert Arrays:    0.00s
  Step 7 - Forward Kinematics: 0.03s
  Step 8 - Save Data:         0.00s
Status: SUCCESS
==================================================

=== FILE SUCCESS - 2025-10-14 15:52:51 ===
File index: 007816
File number: 77/10017
Input file: /data/retarget/locomotion/raw/AMASS_SMPLXG/DanceDB/20151003_AndriaMichaelidou/Andria_Relaxed_v2_C3D_stageii.npz
Output file: ../robot/ik_based/pkl/007816.pkl
Processing time: 22.04 seconds
Total file time: 22.49 seconds
Status: SUCCESS
==================================================

=== SUCCESS LOG - 2025-10-14 15:53:24 ===
Input file: /data/retarget/locomotion/raw/AMASS_SMPLXG/DanceDB/20151003_AndriaMichaelidou/Andria_Sad_v1_C3D_stageii.npz
Output file: ../robot/ik_based/pkl/007817.pkl
Robot type: unitree_g1
Processing time: 33.84 seconds

STEP-BY-STEP TIMING:
  Step 1 - Load SMPLX:        1.90s
  Step 2 - Align FPS:         5.15s
  Step 3 - Init Retarget:     0.20s
  Step 4 - Init Visualization: 0.00s
  Step 5 - Process Frames:    26.53s (avg: 0.025s/frame)
  Step 6 - Convert Arrays:    0.00s
  Step 7 - Forward Kinematics: 0.03s
  Step 8 - Save Data:         0.00s
Status: SUCCESS
==================================================

=== FILE SUCCESS - 2025-10-14 15:53:25 ===
File index: 007817
File number: 78/10017
Input file: /data/retarget/locomotion/raw/AMASS_SMPLXG/DanceDB/20151003_AndriaMichaelidou/Andria_Sad_v1_C3D_stageii.npz
Output file: ../robot/ik_based/pkl/007817.pkl
Processing time: 33.84 seconds
Total file time: 34.59 seconds
Status: SUCCESS
==================================================

=== SUCCESS LOG - 2025-10-14 15:53:53 ===
Input file: /data/retarget/locomotion/raw/AMASS_SMPLXG/DanceDB/20151003_AndriaMichaelidou/Andria_Sad_v2_C3D_stageii.npz
Output file: ../robot/ik_based/pkl/007818.pkl
Robot type: unitree_g1
Processing time: 27.49 seconds

STEP-BY-STEP TIMING:
  Step 1 - Load SMPLX:        1.71s
  Step 2 - Align FPS:         4.28s
  Step 3 - Init Retarget:     0.14s
  Step 4 - Init Visualization: 0.00s
  Step 5 - Process Frames:    21.28s (avg: 0.026s/frame)
  Step 6 - Convert Arrays:    0.00s
  Step 7 - Forward Kinematics: 0.04s
  Step 8 - Save Data:         0.00s
Status: SUCCESS
==================================================

=== FILE SUCCESS - 2025-10-14 15:53:53 ===
File index: 007818
File number: 79/10017
Input file: /data/retarget/locomotion/raw/AMASS_SMPLXG/DanceDB/20151003_AndriaMichaelidou/Andria_Sad_v2_C3D_stageii.npz
Output file: ../robot/ik_based/pkl/007818.pkl
Processing time: 27.49 seconds
Total file time: 28.13 seconds
Status: SUCCESS
==================================================

=== SUCCESS LOG - 2025-10-14 15:54:32 ===
Input file: /data/retarget/locomotion/raw/AMASS_SMPLXG/DanceDB/20151003_AndriaMichaelidou/Andria_Satisfied_v1_C3D_stageii.npz
Output file: ../robot/ik_based/pkl/007819.pkl
Robot type: unitree_g1
Processing time: 38.63 seconds

STEP-BY-STEP TIMING:
  Step 1 - Load SMPLX:        1.64s
  Step 2 - Align FPS:         3.79s
  Step 3 - Init Retarget:     0.14s
  Step 4 - Init Visualization: 0.00s
  Step 5 - Process Frames:    32.99s (avg: 0.042s/frame)
  Step 6 - Convert Arrays:    0.00s
  Step 7 - Forward Kinematics: 0.04s
  Step 8 - Save Data:         0.00s
Status: SUCCESS
==================================================

=== FILE SUCCESS - 2025-10-14 15:54:33 ===
File index: 007819
File number: 80/10017
Input file: /data/retarget/locomotion/raw/AMASS_SMPLXG/DanceDB/20151003_AndriaMichaelidou/Andria_Satisfied_v1_C3D_stageii.npz
Output file: ../robot/ik_based/pkl/007819.pkl
Processing time: 38.63 seconds
Total file time: 39.16 seconds
Status: SUCCESS
==================================================

=== SUCCESS LOG - 2025-10-14 15:54:59 ===
Input file: /data/retarget/locomotion/raw/AMASS_SMPLXG/DanceDB/20151003_AndriaMichaelidou/Andria_Satisfied_v2_C3D_stageii.npz
Output file: ../robot/ik_based/pkl/007820.pkl
Robot type: unitree_g1
Processing time: 26.92 seconds

STEP-BY-STEP TIMING:
  Step 1 - Load SMPLX:        1.40s
  Step 2 - Align FPS:         2.85s
  Step 3 - Init Retarget:     0.13s
  Step 4 - Init Visualization: 0.00s
  Step 5 - Process Frames:    22.48s (avg: 0.038s/frame)
  Step 6 - Convert Arrays:    0.00s
  Step 7 - Forward Kinematics: 0.04s
  Step 8 - Save Data:         0.00s
Status: SUCCESS
==================================================

=== FILE SUCCESS - 2025-10-14 15:55:00 ===
File index: 007820
File number: 81/10017
Input file: /data/retarget/locomotion/raw/AMASS_SMPLXG/DanceDB/20151003_AndriaMichaelidou/Andria_Satisfied_v2_C3D_stageii.npz
Output file: ../robot/ik_based/pkl/007820.pkl
Processing time: 26.92 seconds
Total file time: 27.49 seconds
Status: SUCCESS
==================================================

=== SUCCESS LOG - 2025-10-14 15:55:39 ===
Input file: /data/retarget/locomotion/raw/AMASS_SMPLXG/DanceDB/20151003_AndriaMichaelidou/Andria_Tired_v1_C3D_stageii.npz
Output file: ../robot/ik_based/pkl/007821.pkl
Robot type: unitree_g1
Processing time: 38.75 seconds

STEP-BY-STEP TIMING:
  Step 1 - Load SMPLX:        1.52s
  Step 2 - Align FPS:         3.50s
  Step 3 - Init Retarget:     0.16s
  Step 4 - Init Visualization: 0.00s
  Step 5 - Process Frames:    33.37s (avg: 0.047s/frame)
  Step 6 - Convert Arrays:    0.00s
  Step 7 - Forward Kinematics: 0.15s
  Step 8 - Save Data:         0.01s
Status: SUCCESS
==================================================

=== FILE SUCCESS - 2025-10-14 15:55:39 ===
File index: 007821
File number: 82/10017
Input file: /data/retarget/locomotion/raw/AMASS_SMPLXG/DanceDB/20151003_AndriaMichaelidou/Andria_Tired_v1_C3D_stageii.npz
Output file: ../robot/ik_based/pkl/007821.pkl
Processing time: 38.75 seconds
Total file time: 39.19 seconds
Status: SUCCESS
==================================================

=== SUCCESS LOG - 2025-10-14 15:56:15 ===
Input file: /data/retarget/locomotion/raw/AMASS_SMPLXG/DanceDB/20151003_AndriaMichaelidou/Andria_Tired_v2_C3D_stageii.npz
Output file: ../robot/ik_based/pkl/007822.pkl
Robot type: unitree_g1
Processing time: 35.68 seconds

STEP-BY-STEP TIMING:
  Step 1 - Load SMPLX:        1.82s
[...]
Input file: /data/retarget/locomotion/raw/AMASS_SMPLXG/HDM05/bk/HDM_bk_02-03_01_120_stageii.npz
Output file: ../robot/ik_based/pkl/010352.pkl
Robot type: unitree_g1
Processing time: 24.54 seconds

STEP-BY-STEP TIMING:
  Step 1 - Load SMPLX:        1.49s
  Step 2 - Align FPS:         3.01s
  Step 3 - Init Retarget:     0.22s
  Step 4 - Init Visualization: 0.00s
  Step 5 - Process Frames:    19.68s (avg: 0.031s/frame)
  Step 6 - Convert Arrays:    0.01s
  Step 7 - Forward Kinematics: 0.07s
  Step 8 - Save Data:         0.00s
Status: SUCCESS
==================================================

=== FILE SUCCESS - 2025-10-15 06:11:39 ===
File index: 010352
File number: 2613/10017
Input file: /data/retarget/locomotion/raw/AMASS_SMPLXG/HDM05/bk/HDM_bk_02-03_01_120_stageii.npz
Output file: ../robot/ik_based/pkl/010352.pkl
Processing time: 24.54 seconds
Total file time: 25.28 seconds
Status: SUCCESS
==================================================

=== SUCCESS LOG - 2025-10-15 06:12:53 ===
Input file: /data/retarget/locomotion/raw/AMASS_SMPLXG/HDM05/bk/HDM_bk_02-03_02_120_stageii.npz
Output file: ../robot/ik_based/pkl/010353.pkl
Robot type: unitree_g1
Processing time: 73.77 seconds

STEP-BY-STEP TIMING:
  Step 1 - Load SMPLX:        25.29s
  Step 2 - Align FPS:         11.54s
  Step 3 - Init Retarget:     2.22s
  Step 4 - Init Visualization: 0.00s
  Step 5 - Process Frames:    34.63s (avg: 0.074s/frame)
  Step 6 - Convert Arrays:    0.00s
  Step 7 - Forward Kinematics: 0.04s
  Step 8 - Save Data:         0.01s
Status: SUCCESS
==================================================

=== FILE SUCCESS - 2025-10-15 06:12:54 ===
File index: 010353
File number: 2614/10017
Input file: /data/retarget/locomotion/raw/AMASS_SMPLXG/HDM05/bk/HDM_bk_02-03_02_120_stageii.npz
Output file: ../robot/ik_based/pkl/010353.pkl
Processing time: 73.77 seconds
Total file time: 74.78 seconds
Status: SUCCESS
==================================================

=== SUCCESS LOG - 2025-10-15 06:14:31 ===
Input file: /data/retarget/locomotion/raw/AMASS_SMPLXG/HDM05/bk/HDM_bk_02-03_03_120_stageii.npz
Output file: ../robot/ik_based/pkl/010354.pkl
Robot type: unitree_g1
Processing time: 96.35 seconds

STEP-BY-STEP TIMING:
  Step 1 - Load SMPLX:        36.11s
  Step 2 - Align FPS:         10.83s
  Step 3 - Init Retarget:     0.39s
  Step 4 - Init Visualization: 0.00s
  Step 5 - Process Frames:    48.88s (avg: 0.091s/frame)
  Step 6 - Convert Arrays:    0.00s
  Step 7 - Forward Kinematics: 0.06s
  Step 8 - Save Data:         0.00s
Status: SUCCESS
==================================================

=== FILE SUCCESS - 2025-10-15 06:14:31 ===
File index: 010354
File number: 2615/10017
Input file: /data/retarget/locomotion/raw/AMASS_SMPLXG/HDM05/bk/HDM_bk_02-03_03_120_stageii.npz
Output file: ../robot/ik_based/pkl/010354.pkl
Processing time: 96.35 seconds
Total file time: 97.05 seconds
Status: SUCCESS
==================================================

=== SUCCESS LOG - 2025-10-15 06:15:27 ===
Input file: /data/retarget/locomotion/raw/AMASS_SMPLXG/HDM05/bk/HDM_bk_02-03_04_120_stageii.npz
Output file: ../robot/ik_based/pkl/010355.pkl
Robot type: unitree_g1
Processing time: 55.35 seconds

STEP-BY-STEP TIMING:
  Step 1 - Load SMPLX:        7.64s
  Step 2 - Align FPS:         5.51s
  Step 3 - Init Retarget:     0.39s
  Step 4 - Init Visualization: 0.00s
  Step 5 - Process Frames:    41.74s (avg: 0.087s/frame)
  Step 6 - Convert Arrays:    0.00s
  Step 7 - Forward Kinematics: 0.04s
  Step 8 - Save Data:         0.00s
Status: SUCCESS
==================================================

=== FILE SUCCESS - 2025-10-15 06:15:27 ===
File index: 010355
File number: 2616/10017
Input file: /data/retarget/locomotion/raw/AMASS_SMPLXG/HDM05/bk/HDM_bk_02-03_04_120_stageii.npz
Output file: ../robot/ik_based/pkl/010355.pkl
Processing time: 55.35 seconds
Total file time: 55.82 seconds
Status: SUCCESS
==================================================

=== SUCCESS LOG - 2025-10-15 06:18:03 ===
Input file: /data/retarget/locomotion/raw/AMASS_SMPLXG/HDM05/bk/HDM_bk_03-02_01_120_stageii.npz
Output file: ../robot/ik_based/pkl/010356.pkl
Robot type: unitree_g1
Processing time: 156.30 seconds

STEP-BY-STEP TIMING:
  Step 1 - Load SMPLX:        30.79s
  Step 2 - Align FPS:         23.47s
  Step 3 - Init Retarget:     1.16s
  Step 4 - Init Visualization: 0.00s
  Step 5 - Process Frames:    100.76s (avg: 0.081s/frame)
  Step 6 - Convert Arrays:    0.00s
  Step 7 - Forward Kinematics: 0.06s
  Step 8 - Save Data:         0.00s
Status: SUCCESS
==================================================

=== FILE SUCCESS - 2025-10-15 06:18:04 ===
File index: 010356
File number: 2617/10017
Input file: /data/retarget/locomotion/raw/AMASS_SMPLXG/HDM05/bk/HDM_bk_03-02_01_120_stageii.npz
Output file: ../robot/ik_based/pkl/010356.pkl
Processing time: 156.30 seconds
Total file time: 157.11 seconds
Status: SUCCESS
==================================================

=== SUCCESS LOG - 2025-10-15 06:20:00 ===
Input file: /data/retarget/locomotion/raw/AMASS_SMPLXG/HDM05/bk/HDM_bk_03-02_02_120_stageii.npz
Output file: ../robot/ik_based/pkl/010357.pkl
Robot type: unitree_g1
Processing time: 115.65 seconds

STEP-BY-STEP TIMING:
  Step 1 - Load SMPLX:        1.91s
  Step 2 - Align FPS:         5.48s
  Step 3 - Init Retarget:     0.74s
  Step 4 - Init Visualization: 0.00s
  Step 5 - Process Frames:    107.44s (avg: 0.104s/frame)
  Step 6 - Convert Arrays:    0.00s
  Step 7 - Forward Kinematics: 0.04s
  Step 8 - Save Data:         0.00s
Status: SUCCESS
==================================================

=== FILE SUCCESS - 2025-10-15 06:20:01 ===
File index: 010357
File number: 2618/10017
Input file: /data/retarget/locomotion/raw/AMASS_SMPLXG/HDM05/bk/HDM_bk_03-02_02_120_stageii.npz
Output file: ../robot/ik_based/pkl/010357.pkl
Processing time: 115.65 seconds
Total file time: 116.33 seconds
Status: SUCCESS
==================================================

=== SUCCESS LOG - 2025-10-15 06:21:57 ===
Input file: /data/retarget/locomotion/raw/AMASS_SMPLXG/HDM05/bk/HDM_bk_03-02_03_120_stageii.npz
Output file: ../robot/ik_based/pkl/010358.pkl
Robot type: unitree_g1
Processing time: 116.67 seconds

STEP-BY-STEP TIMING:
  Step 1 - Load SMPLX:        1.96s
  Step 2 - Align FPS:         5.09s
  Step 3 - Init Retarget:     0.23s
  Step 4 - Init Visualization: 0.00s
  Step 5 - Process Frames:    109.29s (avg: 0.102s/frame)
  Step 6 - Convert Arrays:    0.01s
  Step 7 - Forward Kinematics: 0.05s
  Step 8 - Save Data:         0.00s
Status: SUCCESS
==================================================

=== FILE SUCCESS - 2025-10-15 06:21:58 ===
File index: 010358
File number: 2619/10017
Input file: /data/retarget/locomotion/raw/AMASS_SMPLXG/HDM05/bk/HDM_bk_03-02_03_120_stageii.npz
Output file: ../robot/ik_based/pkl/010358.pkl
Processing time: 116.67 seconds
Total file time: 117.57 seconds
Status: SUCCESS
==================================================

=== SUCCESS LOG - 2025-10-15 06:23:30 ===
Input file: /data/retarget/locomotion/raw/AMASS_SMPLXG/HDM05/bk/HDM_bk_03-03_01_120_stageii.npz
Output file: ../robot/ik_based/pkl/010359.pkl
Robot type: unitree_g1
Processing time: 91.44 seconds

STEP-BY-STEP TIMING:
  Step 1 - Load SMPLX:        7.75s
  Step 2 - Align FPS:         5.35s
  Step 3 - Init Retarget:     0.41s
  Step 4 - Init Visualization: 0.00s
  Step 5 - Process Frames:    77.71s (avg: 0.070s/frame)
  Step 6 - Convert Arrays:    0.01s
  Step 7 - Forward Kinematics: 0.17s
  Step 8 - Save Data:         0.00s
Status: SUCCESS
==================================================

=== FILE SUCCESS - 2025-10-15 06:23:30 ===
File index: 010359
File number: 2620/10017
Input file: /data/retarget/locomotion/raw/AMASS_SMPLXG/HDM05/bk/HDM_bk_03-03_01_120_stageii.npz
Output file: ../robot/ik_based/pkl/010359.pkl
Processing time: 91.44 seconds
Total file time: 92.25 seconds
Status: SUCCESS
==================================================

=== SUCCESS LOG - 2025-10-15 06:25:33 ===
Input file: /data/retarget/locomotion/raw/AMASS_SMPLXG/HDM05/bk/HDM_bk_03-03_02_120_stageii.npz
Output file: ../robot/ik_based/pkl/010360.pkl
Robot type: unitree_g1
Processing time: 122.11 seconds

STEP-BY-STEP TIMING:
  Step 1 - Load SMPLX:        23.97s
  Step 2 - Align FPS:         10.53s
  Step 3 - Init Retarget:     0.69s
  Step 4 - Init Visualization: 0.00s
  Step 5 - Process Frames:    86.73s (avg: 0.069s/frame)
  Step 6 - Convert Arrays:    0.01s
  Step 7 - Forward Kinematics: 0.10s
  Step 8 - Save Data:         0.00s
Status: SUCCESS
==================================================

=== FILE SUCCESS - 2025-10-15 06:25:33 ===
File index: 010360
File number: 2621/10017
Input file: /data/retarget/locomotion/raw/AMASS_SMPLXG/HDM05/bk/HDM_bk_03-03_02_120_stageii.npz
Output file: ../robot/ik_based/pkl/010360.pkl
Processing time: 122.11 seconds
Total file time: 122.95 seconds
Status: SUCCESS
==================================================

=== SUCCESS LOG - 2025-10-15 06:27:29 ===
Input file: /data/retarget/locomotion/raw/AMASS_SMPLXG/HDM05/bk/HDM_bk_03-03_03_120_stageii.npz
Output file: ../robot/ik_based/pkl/010361.pkl
Robot type: unitree_g1
Processing time: 115.54 seconds

STEP-BY-STEP TIMING:
  Step 1 - Load SMPLX:        11.51s
  Step 2 - Align FPS:         18.65s
  Step 3 - Init Retarget:     1.19s
  Step 4 - Init Visualization: 0.00s
  Step 5 - Process Frames:    84.04s (avg: 0.070s/frame)
  Step 6 - Convert Arrays:    0.01s
  Step 7 - Forward Kinematics: 0.07s
  Step 8 - Save Data:         0.01s
Status: SUCCESS
==================================================

=== FILE SUCCESS - 2025-10-15 06:27:30 ===
File index: 010361
File number: 2622/10017
Input file: /data/retarget/locomotion/raw/AMASS_SMPLXG/HDM05/bk/HDM_bk_03-03_03_120_stageii.npz
Output file: ../robot/ik_based/pkl/010361.pkl
Processing time: 115.54 seconds
Total file time: 116.40 seconds
Status: SUCCESS
==================================================

=== SUCCESS LOG - 2025-10-15 06:31:10 ===
Input file: /data/retarget/locomotion/raw/AMASS_SMPLXG/HDM05/bk/HDM_bk_03-04_01_120_stageii.npz
Output file: ../robot/ik_based/pkl/010362.pkl
Robot type: unitree_g1
Processing time: 220.69 seconds

STEP-BY-STEP TIMING:
  Step 1 - Load SMPLX:        13.37s
  Step 2 - Align FPS:         47.57s
  Step 3 - Init Retarget:     0.40s
  Step 4 - Init Visualization: 0.00s
  Step 5 - Process Frames:    159.27s (avg: 0.056s/frame)
  Step 6 - Convert Arrays:    0.01s
  Step 7 - Forward Kinematics: 0.04s
  Step 8 - Save Data:         0.01s
Status: SUCCESS
==================================================

=== FILE SUCCESS - 2025-10-15 06:31:12 ===
File index: 010362
File number: 2623/10017
Input file: /data/retarget/locomotion/raw/AMASS_SMPLXG/HDM05/bk/HDM_bk_03-04_01_120_stageii.npz
Output file: ../robot/ik_based/pkl/010362.pkl
Processing time: 220.69 seconds
Total file time: 222.21 seconds
Status: SUCCESS
==================================================

=== SUCCESS LOG - 2025-10-15 06:33:40 ===
Input file: /data/retarget/locomotion/raw/AMASS_SMPLXG/HDM05/bk/HDM_bk_03-04_02_120_stageii.npz
Output file: ../robot/ik_based/pkl/010363.pkl
Robot type: unitree_g1
Processing time: 148.16 seconds

STEP-BY-STEP TIMING:
  Step 1 - Load SMPLX:        10.65s
  Step 2 - Align FPS:         20.82s
  Step 3 - Init Retarget:     0.60s
  Step 4 - Init Visualization: 0.00s
  Step 5 - Process Frames:    115.96s (avg: 0.063s/frame)
  Step 6 - Convert Arrays:    0.01s
  Step 7 - Forward Kinematics: 0.06s
  Step 8 - Save Data:         0.00s
Status: SUCCESS
==================================================

=== FILE SUCCESS - 2025-10-15 06:33:41 ===
File index: 010363
File number: 2624/10017
Input file: /data/retarget/locomotion/raw/AMASS_SMPLXG/HDM05/bk/HDM_bk_03-04_02_120_stageii.npz
Output file: ../robot/ik_based/pkl/010363.pkl
Processing time: 148.16 seconds
Total file time: 149.44 seconds
Status: SUCCESS
==================================================

=== SUCCESS LOG - 2025-10-15 06:36:18 ===
Input file: /data/retarget/locomotion/raw/AMASS_SMPLXG/HDM05/bk/HDM_bk_03-04_03_120_stageii.npz
Output file: ../robot/ik_based/pkl/010364.pkl
Robot type: unitree_g1
Processing time: 156.24 seconds

STEP-BY-STEP TIMING:
  Step 1 - Load SMPLX:        2.85s
  Step 2 - Align FPS:         9.96s
  Step 3 - Init Retarget:     0.92s
  Step 4 - Init Visualization: 0.00s
  Step 5 - Process Frames:    142.44s (avg: 0.073s/frame)
  Step 6 - Convert Arrays:    0.01s
  Step 7 - Forward Kinematics: 0.03s
  Step 8 - Save Data:         0.00s
Status: SUCCESS
==================================================

=== FILE SUCCESS - 2025-10-15 06:36:19 ===
File index: 010364
File number: 2625/10017
Input file: /data/retarget/locomotion/raw/AMASS_SMPLXG/HDM05/bk/HDM_bk_03-04_03_120_stageii.npz
Output file: ../robot/ik_based/pkl/010364.pkl
Processing time: 156.24 seconds
Total file time: 157.55 seconds
Status: SUCCESS
==================================================

=== SUCCESS LOG - 2025-10-15 06:38:51 ===
Input file: /data/retarget/locomotion/raw/AMASS_SMPLXG/HDM05/bk/HDM_bk_03-04_04_120_stageii.npz
Output file: ../robot/ik_based/pkl/010365.pkl
Robot type: unitree_g1
Processing time: 152.14 seconds

STEP-BY-STEP TIMING:
  Step 1 - Load SMPLX:        2.98s
  Step 2 - Align FPS:         9.60s
  Step 3 - Init Retarget:     0.28s
  Step 4 - Init Visualization: 0.00s
  Step 5 - Process Frames:    139.18s (avg: 0.076s/frame)
  Step 6 - Convert Arrays:    0.01s
  Step 7 - Forward Kinematics: 0.06s
  Step 8 - Save Data:         0.00s
Status: SUCCESS
==================================================

=== FILE SUCCESS - 2025-10-15 06:38:52 ===
File index: 010365
File number: 2626/10017
Input file: /data/retarget/locomotion/raw/AMASS_SMPLXG/HDM05/bk/HDM_bk_03-04_04_120_stageii.npz
Output file: ../robot/ik_based/pkl/010365.pkl
Processing time: 152.14 seconds
Total file time: 153.42 seconds
Status: SUCCESS
==================================================

=== SUCCESS LOG - 2025-10-15 06:40:39 ===
Input file: /data/retarget/locomotion/raw/AMASS_SMPLXG/HDM05/bk/HDM_bk_03-05_01_120_stageii.npz
Output file: ../robot/ik_based/pkl/010366.pkl
Robot type: unitree_g1
Processing time: 106.47 seconds

STEP-BY-STEP TIMING:
  Step 1 - Load SMPLX:        2.46s
  Step 2 - Align FPS:         7.22s
  Step 3 - Init Retarget:     0.44s
  Step 4 - Init Visualization: 0.00s
  Step 5 - Process Frames:    96.18s (avg: 0.064s/frame)
  Step 6 - Convert Arrays:    0.01s
  Step 7 - Forward Kinematics: 0.04s
  Step 8 - Save Data:         0.01s
Status: SUCCESS
==================================================

=== FILE SUCCESS - 2025-10-15 06:40:41 ===
File index: 010366
File number: 2627/10017
Input file: /data/retarget/locomotion/raw/AMASS_SMPLXG/HDM05/bk/HDM_bk_03-05_01_120_stageii.npz
Output file: ../robot/ik_based/pkl/010366.pkl
Processing time: 106.47 seconds
Total file time: 108.22 seconds
Status: SUCCESS
==================================================

=== SUCCESS LOG - 2025-10-15 06:42:26 ===
Input file: /data/retarget/locomotion/raw/AMASS_SMPLXG/HDM05/bk/HDM_bk_03-05_02_120_stageii.npz
Output file: ../robot/ik_based/pkl/010367.pkl
Robot type: unitree_g1
Processing time: 105.36 seconds

STEP-BY-STEP TIMING:
  Step 1 - Load SMPLX:        8.23s
  Step 2 - Align FPS:         8.28s
  Step 3 - Init Retarget:     0.21s
  Step 4 - Init Visualization: 0.00s
  Step 5 - Process Frames:    88.18s (avg: 0.076s/frame)
  Step 6 - Convert Arrays:    0.04s
  Step 7 - Forward Kinematics: 0.24s
  Step 8 - Save Data:         0.01s
Status: SUCCESS
==================================================

=== FILE SUCCESS - 2025-10-15 06:42:27 ===
File index: 010367
File number: 2628/10017
Input file: /data/retarget/locomotion/raw/AMASS_SMPLXG/HDM05/bk/HDM_bk_03-05_02_120_stageii.npz
Output file: ../robot/ik_based/pkl/010367.pkl
Processing time: 105.36 seconds
Total file time: 106.85 seconds
Status: SUCCESS
==================================================

=== SUCCESS LOG - 2025-10-15 06:44:17 ===
Input file: /data/retarget/locomotion/raw/AMASS_SMPLXG/HDM05/bk/HDM_bk_03-05_03_120_stageii.npz
Output file: ../robot/ik_based/pkl/010368.pkl
Robot type: unitree_g1
Processing time: 109.37 seconds

STEP-BY-STEP TIMING:
  Step 1 - Load SMPLX:        21.78s
  Step 2 - Align FPS:         7.15s
  Step 3 - Init Retarget:     0.35s
  Step 4 - Init Visualization: 0.00s
  Step 5 - Process Frames:    79.38s (avg: 0.069s/frame)
  Step 6 - Convert Arrays:    0.04s
  Step 7 - Forward Kinematics: 0.37s
  Step 8 - Save Data:         0.08s
Status: SUCCESS
==================================================

=== FILE SUCCESS - 2025-10-15 06:44:18 ===
File index: 010368
File number: 2629/10017
Input file: /data/retarget/locomotion/raw/AMASS_SMPLXG/HDM05/bk/HDM_bk_03-05_03_120_stageii.npz
Output file: ../robot/ik_based/pkl/010368.pkl
Processing time: 109.37 seconds
Total file time: 110.36 seconds
Status: SUCCESS
==================================================

=== SUCCESS LOG - 2025-10-15 06:45:30 ===
Input file: /data/retarget/locomotion/raw/AMASS_SMPLXG/HDM05/bk/HDM_bk_03-11_01_120_stageii.npz
Output file: ../robot/ik_based/pkl/010369.pkl
Robot type: unitree_g1
Processing time: 71.90 seconds

STEP-BY-STEP TIMING:
  Step 1 - Load SMPLX:        24.57s
  Step 2 - Align FPS:         5.99s
  Step 3 - Init Retarget:     0.28s
  Step 4 - Init Visualization: 0.00s
  Step 5 - Process Frames:    40.61s (avg: 0.052s/frame)
  Step 6 - Convert Arrays:    0.00s
  Step 7 - Forward Kinematics: 0.23s
  Step 8 - Save Data:         0.00s
Status: SUCCESS
==================================================

=== FILE SUCCESS - 2025-10-15 06:45:31 ===
File index: 010369
File number: 2630/10017
Input file: /data/retarget/locomotion/raw/AMASS_SMPLXG/HDM05/bk/HDM_bk_03-11_01_120_stageii.npz
Output file: ../robot/ik_based/pkl/010369.pkl
Processing time: 71.90 seconds
Total file time: 72.78 seconds
Status: SUCCESS
==================================================

=== SUCCESS LOG - 2025-10-15 06:47:26 ===
Input file: /data/retarget/locomotion/raw/AMASS_SMPLXG/HDM05/bk/HDM_bk_03-11_02_120_stageii.npz
Output file: ../robot/ik_based/pkl/010370.pkl
Robot type: unitree_g1
Processing time: 115.86 seconds

STEP-BY-STEP TIMING:
  Step 1 - Load SMPLX:        54.49s
  Step 2 - Align FPS:         11.79s
  Step 3 - Init Retarget:     0.97s
  Step 4 - Init Visualization: 0.00s
  Step 5 - Process Frames:    48.17s (avg: 0.059s/frame)
  Step 6 - Convert Arrays:    0.00s
  Step 7 - Forward Kinematics: 0.18s
  Step 8 - Save Data:         0.08s
Status: SUCCESS
==================================================

=== FILE SUCCESS - 2025-10-15 06:47:28 ===
File index: 010370
File number: 2631/10017
Input file: /data/retarget/locomotion/raw/AMASS_SMPLXG/HDM05/bk/HDM_bk_03-11_02_120_stageii.npz
Output file: ../robot/ik_based/pkl/010370.pkl
Processing time: 115.86 seconds
Total file time: 117.00 seconds
Status: SUCCESS
==================================================

=== SUCCESS LOG - 2025-10-15 06:49:26 ===
Input file: /data/retarget/locomotion/raw/AMASS_SMPLXG/HDM05/bk/HDM_bk_03-11_03_120_stageii.npz
Output file: ../robot/ik_based/pkl/010371.pkl
Robot type: unitree_g1
Processing time: 118.34 seconds

STEP-BY-STEP TIMING:
  Step 1 - Load SMPLX:        53.26s
  Step 2 - Align FPS:         12.83s
  Step 3 - Init Retarget:     0.72s
  Step 4 - Init Visualization: 0.00s
  Step 5 - Process Frames:    51.30s (avg: 0.068s/frame)
  Step 6 - Convert Arrays:    0.01s
  Step 7 - Forward Kinematics: 0.07s
  Step 8 - Save Data:         0.00s
Status: SUCCESS
==================================================

=== FILE SUCCESS - 2025-10-15 06:49:27 ===
File index: 010371
File number: 2632/10017
Input file: /data/retarget/locomotion/raw/AMASS_SMPLXG/HDM05/bk/HDM_bk_03-11_03_120_stageii.npz
Output file: ../robot/ik_based/pkl/010371.pkl
Processing time: 118.34 seconds
Total file time: 119.79 seconds
Status: SUCCESS
==================================================
