
=== SUCCESS LOG - 2025-10-14 14:29:38 ===
Input file: /data/retarget/locomotion/raw/AMASS_SMPLXG/KIT/1229/hand_to_mouth_left_arm_02_stageii.npz
Output file: ../robot/ik_based/pkl/011005.pkl
Robot type: unitree_g1
Processing time: 112.44 seconds

STEP-BY-STEP TIMING:
  Step 1 - Load SMPLX:        10.49s
  Step 2 - Align FPS:         11.31s
  Step 3 - Init Retarget:     13.42s
  Step 4 - Init Visualization: 0.29s
  Step 5 - Process Frames:    65.21s (avg: 0.815s/frame)
  Step 6 - Convert Arrays:    0.00s
  Step 7 - Forward Kinematics: 7.59s
  Step 8 - Save Data:         0.05s
Status: SUCCESS
==================================================

=== SUCCESS LOG - 2025-10-14 14:29:42 ===
Input file: /data/retarget/locomotion/raw/AMASS_SMPLXG/KIT/1229/hand_to_mouth_left_arm_01_stageii.npz
Output file: ../robot/ik_based/pkl/011004.pkl
Robot type: unitree_g1
Processing time: 117.07 seconds

STEP-BY-STEP TIMING:
  Step 1 - Load SMPLX:        10.22s
  Step 2 - Align FPS:         12.67s
  Step 3 - Init Retarget:     12.69s
  Step 4 - Init Visualization: 0.03s
  Step 5 - Process Frames:    71.49s (avg: 0.851s/frame)
  Step 6 - Convert Arrays:    0.00s
  Step 7 - Forward Kinematics: 5.36s
  Step 8 - Save Data:         0.07s
Status: SUCCESS
==================================================

=== SUCCESS LOG - 2025-10-14 14:29:52 ===
Input file: /data/retarget/locomotion/raw/AMASS_SMPLXG/KIT/1229/hand_to_mouth_right_arm_03_stageii.npz
Output file: ../robot/ik_based/pkl/011011.pkl
Robot type: unitree_g1
Processing time: 126.75 seconds

STEP-BY-STEP TIMING:
  Step 1 - Load SMPLX:        11.78s
  Step 2 - Align FPS:         19.49s
  Step 3 - Init Retarget:     7.89s
  Step 4 - Init Visualization: 0.09s
  Step 5 - Process Frames:    80.14s (avg: 0.890s/frame)
  Step 6 - Convert Arrays:    0.00s
  Step 7 - Forward Kinematics: 4.05s
  Step 8 - Save Data:         0.02s
Status: SUCCESS
==================================================

=== SUCCESS LOG - 2025-10-14 14:29:52 ===
Input file: /data/retarget/locomotion/raw/AMASS_SMPLXG/KIT/1229/hand_to_mouth_right_arm_05_stageii.npz
Output file: ../robot/ik_based/pkl/011013.pkl
Robot type: unitree_g1
Processing time: 126.87 seconds

STEP-BY-STEP TIMING:
  Step 1 - Load SMPLX:        9.74s
  Step 2 - Align FPS:         18.69s
  Step 3 - Init Retarget:     9.54s
  Step 4 - Init Visualization: 0.04s
  Step 5 - Process Frames:    81.35s (avg: 0.914s/frame)
  Step 6 - Convert Arrays:    0.01s
  Step 7 - Forward Kinematics: 4.25s
  Step 8 - Save Data:         0.10s
Status: SUCCESS
==================================================

=== SUCCESS LOG - 2025-10-14 14:29:53 ===
Input file: /data/retarget/locomotion/raw/AMASS_SMPLXG/KIT/1229/hand_to_mouth_right_arm_02_stageii.npz
Output file: ../robot/ik_based/pkl/011010.pkl
Robot type: unitree_g1
Processing time: 127.33 seconds

STEP-BY-STEP TIMING:
  Step 1 - Load SMPLX:        10.02s
  Step 2 - Align FPS:         18.06s
  Step 3 - Init Retarget:     10.01s
  Step 4 - Init Visualization: 0.04s
  Step 5 - Process Frames:    82.20s (avg: 0.924s/frame)
  Step 6 - Convert Arrays:    0.00s
  Step 7 - Forward Kinematics: 3.72s
  Step 8 - Save Data:         0.03s
Status: SUCCESS
==================================================

=== SUCCESS LOG - 2025-10-14 14:29:54 ===
Input file: /data/retarget/locomotion/raw/AMASS_SMPLXG/KIT/1229/hand_to_mouth_left_arm_04_stageii.npz
Output file: ../robot/ik_based/pkl/011007.pkl
Robot type: unitree_g1
Processing time: 128.79 seconds

STEP-BY-STEP TIMING:
  Step 1 - Load SMPLX:        11.31s
  Step 2 - Align FPS:         16.40s
  Step 3 - Init Retarget:     10.30s
  Step 4 - Init Visualization: 0.04s
  Step 5 - Process Frames:    83.89s (avg: 0.953s/frame)
  Step 6 - Convert Arrays:    0.01s
  Step 7 - Forward Kinematics: 3.42s
  Step 8 - Save Data:         0.02s
Status: SUCCESS
==================================================

=== SUCCESS LOG - 2025-10-14 14:29:55 ===
Input file: /data/retarget/locomotion/raw/AMASS_SMPLXG/KIT/1229/hand_to_mouth_right_arm_04_stageii.npz
Output file: ../robot/ik_based/pkl/011012.pkl
Robot type: unitree_g1
Processing time: 129.39 seconds

STEP-BY-STEP TIMING:
  Step 1 - Load SMPLX:        11.84s
  Step 2 - Align FPS:         18.36s
  Step 3 - Init Retarget:     8.32s
  Step 4 - Init Visualization: 0.08s
  Step 5 - Process Frames:    84.07s (avg: 0.885s/frame)
  Step 6 - Convert Arrays:    0.01s
  Step 7 - Forward Kinematics: 3.03s
  Step 8 - Save Data:         0.05s
Status: SUCCESS
==================================================

=== SUCCESS LOG - 2025-10-14 14:29:57 ===
Input file: /data/retarget/locomotion/raw/AMASS_SMPLXG/KIT/1229/hand_to_mouth_left_arm_03_stageii.npz
Output file: ../robot/ik_based/pkl/011006.pkl
Robot type: unitree_g1
Processing time: 131.52 seconds

STEP-BY-STEP TIMING:
  Step 1 - Load SMPLX:        9.80s
  Step 2 - Align FPS:         12.65s
  Step 3 - Init Retarget:     12.71s
  Step 4 - Init Visualization: 0.02s
  Step 5 - Process Frames:    90.33s (avg: 1.115s/frame)
  Step 6 - Convert Arrays:    0.00s
  Step 7 - Forward Kinematics: 3.43s
  Step 8 - Save Data:         0.03s
Status: SUCCESS
==================================================

=== SUCCESS LOG - 2025-10-14 14:30:03 ===
Input file: /data/retarget/locomotion/raw/AMASS_SMPLXG/KIT/1229/hand_to_mouth_right_arm_01_stageii.npz
Output file: ../robot/ik_based/pkl/011009.pkl
Robot type: unitree_g1
Processing time: 137.99 seconds

STEP-BY-STEP TIMING:
  Step 1 - Load SMPLX:        12.24s
  Step 2 - Align FPS:         18.31s
  Step 3 - Init Retarget:     8.12s
  Step 4 - Init Visualization: 0.09s
  Step 5 - Process Frames:    91.84s (avg: 0.967s/frame)
  Step 6 - Convert Arrays:    0.01s
  Step 7 - Forward Kinematics: 3.19s
  Step 8 - Save Data:         0.03s
Status: SUCCESS
==================================================

=== ERROR LOG - 2025-10-14 14:30:19 ===
Input file: /data/retarget/locomotion/raw/AMASS_SMPLXG/KIT/1229/male_stagei.npz
Output file: ../robot/ik_based/pkl/011024.pkl
Robot type: unitree_g1
Processing time: 25.81 seconds
Error message: 'pose_body is not a file in the archive'
Error type: KeyError
==================================================

=== SUCCESS LOG - 2025-10-14 14:30:42 ===
Input file: /data/retarget/locomotion/raw/AMASS_SMPLXG/KIT/1229/in_out_rotation_with_help_01_stageii.npz
Output file: ../robot/ik_based/pkl/011019.pkl
Robot type: unitree_g1
Processing time: 176.35 seconds

STEP-BY-STEP TIMING:
  Step 1 - Load SMPLX:        9.13s
  Step 2 - Align FPS:         26.20s
  Step 3 - Init Retarget:     8.34s
  Step 4 - Init Visualization: 0.02s
  Step 5 - Process Frames:    118.02s (avg: 0.707s/frame)
  Step 6 - Convert Arrays:    0.00s
  Step 7 - Forward Kinematics: 8.43s
  Step 8 - Save Data:         0.12s
Status: SUCCESS
==================================================

=== SUCCESS LOG - 2025-10-14 14:30:45 ===
Input file: /data/retarget/locomotion/raw/AMASS_SMPLXG/KIT/1229/hand_to_mouth_left_arm_05_stageii.npz
Output file: ../robot/ik_based/pkl/011008.pkl
Robot type: unitree_g1
Processing time: 179.73 seconds

STEP-BY-STEP TIMING:
  Step 1 - Load SMPLX:        11.85s
  Step 2 - Align FPS:         17.43s
  Step 3 - Init Retarget:     9.03s
  Step 4 - Init Visualization: 0.05s
  Step 5 - Process Frames:    127.45s (avg: 1.448s/frame)
  Step 6 - Convert Arrays:    0.09s
  Step 7 - Forward Kinematics: 7.07s
  Step 8 - Save Data:         0.08s
Status: SUCCESS
==================================================

=== SUCCESS LOG - 2025-10-14 14:30:58 ===
Input file: /data/retarget/locomotion/raw/AMASS_SMPLXG/KIT/1229/hand_to_mouth_with_help_03_stageii.npz
Output file: ../robot/ik_based/pkl/011016.pkl
Robot type: unitree_g1
Processing time: 193.15 seconds

STEP-BY-STEP TIMING:
  Step 1 - Load SMPLX:        9.99s
  Step 2 - Align FPS:         20.85s
  Step 3 - Init Retarget:     7.92s
  Step 4 - Init Visualization: 0.10s
  Step 5 - Process Frames:    141.42s (avg: 1.263s/frame)
  Step 6 - Convert Arrays:    0.01s
  Step 7 - Forward Kinematics: 7.41s
  Step 8 - Save Data:         0.04s
Status: SUCCESS
==================================================

=== SUCCESS LOG - 2025-10-14 14:31:04 ===
Input file: /data/retarget/locomotion/raw/AMASS_SMPLXG/KIT/1229/hand_to_mouth_with_help_05_stageii.npz
Output file: ../robot/ik_based/pkl/011018.pkl
Robot type: unitree_g1
Processing time: 198.35 seconds

STEP-BY-STEP TIMING:
  Step 1 - Load SMPLX:        12.50s
  Step 2 - Align FPS:         20.96s
  Step 3 - Init Retarget:     7.68s
  Step 4 - Init Visualization: 0.08s
  Step 5 - Process Frames:    146.70s (avg: 1.155s/frame)
  Step 6 - Convert Arrays:    0.03s
  Step 7 - Forward Kinematics: 5.42s
  Step 8 - Save Data:         0.06s
Status: SUCCESS
==================================================

=== SUCCESS LOG - 2025-10-14 14:31:08 ===
Input file: /data/retarget/locomotion/raw/AMASS_SMPLXG/KIT/1229/hand_to_mouth_with_help_01_stageii.npz
Output file: ../robot/ik_based/pkl/011014.pkl
Robot type: unitree_g1
Processing time: 202.60 seconds

STEP-BY-STEP TIMING:
  Step 1 - Load SMPLX:        12.18s
  Step 2 - Align FPS:         20.32s
  Step 3 - Init Retarget:     8.18s
  Step 4 - Init Visualization: 0.08s
  Step 5 - Process Frames:    151.83s (avg: 1.265s/frame)
  Step 6 - Convert Arrays:    0.02s
  Step 7 - Forward Kinematics: 5.53s
  Step 8 - Save Data:         0.05s
Status: SUCCESS
==================================================

=== SUCCESS LOG - 2025-10-14 14:31:18 ===
Input file: /data/retarget/locomotion/raw/AMASS_SMPLXG/KIT/1229/hand_through_hair_with_help_02_stageii.npz
Output file: ../robot/ik_based/pkl/011000.pkl
Robot type: unitree_g1
Processing time: 212.89 seconds

STEP-BY-STEP TIMING:
  Step 1 - Load SMPLX:        10.60s
  Step 2 - Align FPS:         24.00s
  Step 3 - Init Retarget:     8.21s
  Step 4 - Init Visualization: 0.08s
  Step 5 - Process Frames:    161.30s (avg: 1.204s/frame)
  Step 6 - Convert Arrays:    0.01s
  Step 7 - Forward Kinematics: 4.77s
  Step 8 - Save Data:         0.03s
Status: SUCCESS
==================================================

=== SUCCESS LOG - 2025-10-14 14:31:18 ===
Input file: /data/retarget/locomotion/raw/AMASS_SMPLXG/KIT/1229/hand_to_mouth_with_help_04_stageii.npz
Output file: ../robot/ik_based/pkl/011017.pkl
Robot type: unitree_g1
Processing time: 212.98 seconds

STEP-BY-STEP TIMING:
  Step 1 - Load SMPLX:        10.18s
  Step 2 - Align FPS:         23.23s
  Step 3 - Init Retarget:     7.49s
  Step 4 - Init Visualization: 0.08s
  Step 5 - Process Frames:    164.31s (avg: 1.191s/frame)
  Step 6 - Convert Arrays:    0.01s
  Step 7 - Forward Kinematics: 4.19s
  Step 8 - Save Data:         0.04s
Status: SUCCESS
==================================================

=== SUCCESS LOG - 2025-10-14 14:31:24 ===
Input file: /data/retarget/locomotion/raw/AMASS_SMPLXG/KIT/1229/hand_to_mouth_with_help_02_stageii.npz
Output file: ../robot/ik_based/pkl/011015.pkl
Robot type: unitree_g1
Processing time: 218.48 seconds

STEP-BY-STEP TIMING:
  Step 1 - Load SMPLX:        9.46s
  Step 2 - Align FPS:         24.33s
  Step 3 - Init Retarget:     9.36s
  Step 4 - Init Visualization: 0.06s
  Step 5 - Process Frames:    166.70s (avg: 1.217s/frame)
  Step 6 - Convert Arrays:    0.00s
  Step 7 - Forward Kinematics: 4.18s
  Step 8 - Save Data:         0.04s
Status: SUCCESS
==================================================

=== SUCCESS LOG - 2025-10-14 14:31:33 ===
Input file: /data/retarget/locomotion/raw/AMASS_SMPLXG/KIT/1229/hand_through_hair_with_help_05_stageii.npz
Output file: ../robot/ik_based/pkl/011003.pkl
Robot type: unitree_g1
Processing time: 227.43 seconds

STEP-BY-STEP TIMING:
  Step 1 - Load SMPLX:        9.61s
  Step 2 - Align FPS:         24.75s
  Step 3 - Init Retarget:     9.32s
  Step 4 - Init Visualization: 0.01s
  Step 5 - Process Frames:    176.04s (avg: 1.285s/frame)
  Step 6 - Convert Arrays:    0.00s
  Step 7 - Forward Kinematics: 4.41s
  Step 8 - Save Data:         0.01s
Status: SUCCESS
==================================================

=== SUCCESS LOG - 2025-10-14 14:31:34 ===
Input file: /data/retarget/locomotion/raw/AMASS_SMPLXG/KIT/1229/hand_through_hair_with_help_04_stageii.npz
Output file: ../robot/ik_based/pkl/011002.pkl
Robot type: unitree_g1
Processing time: 229.00 seconds

STEP-BY-STEP TIMING:
  Step 1 - Load SMPLX:        10.67s
  Step 2 - Align FPS:         24.23s
  Step 3 - Init Retarget:     8.08s
  Step 4 - Init Visualization: 0.08s
  Step 5 - Process Frames:    177.87s (avg: 1.298s/frame)
  Step 6 - Convert Arrays:    0.00s
  Step 7 - Forward Kinematics: 4.42s
  Step 8 - Save Data:         0.04s
Status: SUCCESS
==================================================

=== SUCCESS LOG - 2025-10-14 14:31:34 ===
Input file: /data/retarget/locomotion/raw/AMASS_SMPLXG/KIT/1229/open_pants_left_arm_02_stageii.npz
Output file: ../robot/ik_based/pkl/011026.pkl
Robot type: unitree_g1
Processing time: 99.02 seconds

STEP-BY-STEP TIMING:
  Step 1 - Load SMPLX:        28.47s
  Step 2 - Align FPS:         5.99s
  Step 3 - Init Retarget:     1.69s
  Step 4 - Init Visualization: 0.11s
  Step 5 - Process Frames:    55.41s (avg: 0.693s/frame)
  Step 6 - Convert Arrays:    0.02s
  Step 7 - Forward Kinematics: 4.05s
  Step 8 - Save Data:         0.10s
Status: SUCCESS
==================================================

=== SUCCESS LOG - 2025-10-14 14:31:38 ===
Input file: /data/retarget/locomotion/raw/AMASS_SMPLXG/KIT/1229/hand_through_hair_with_help_03_stageii.npz
Output file: ../robot/ik_based/pkl/011001.pkl
Robot type: unitree_g1
Processing time: 232.49 seconds

STEP-BY-STEP TIMING:
  Step 1 - Load SMPLX:        10.71s
  Step 2 - Align FPS:         24.47s
  Step 3 - Init Retarget:     8.80s
  Step 4 - Init Visualization: 0.06s
  Step 5 - Process Frames:    180.53s (avg: 1.290s/frame)
  Step 6 - Convert Arrays:    0.01s
  Step 7 - Forward Kinematics: 3.00s
  Step 8 - Save Data:         0.09s
Status: SUCCESS
==================================================

=== SUCCESS LOG - 2025-10-14 14:31:46 ===
Input file: /data/retarget/locomotion/raw/AMASS_SMPLXG/KIT/1229/open_pants_left_arm_03_stageii.npz
Output file: ../robot/ik_based/pkl/011027.pkl
Robot type: unitree_g1
Processing time: 108.68 seconds

STEP-BY-STEP TIMING:
  Step 1 - Load SMPLX:        32.37s
  Step 2 - Align FPS:         4.95s
  Step 3 - Init Retarget:     0.90s
  Step 4 - Init Visualization: 0.00s
  Step 5 - Process Frames:    63.56s (avg: 0.714s/frame)
  Step 6 - Convert Arrays:    0.00s
  Step 7 - Forward Kinematics: 4.41s
  Step 8 - Save Data:         0.02s
Status: SUCCESS
==================================================

=== SUCCESS LOG - 2025-10-14 14:31:50 ===
Input file: /data/retarget/locomotion/raw/AMASS_SMPLXG/KIT/1229/open_pants_left_arm_01_stageii.npz
Output file: ../robot/ik_based/pkl/011025.pkl
Robot type: unitree_g1
Processing time: 114.81 seconds

STEP-BY-STEP TIMING:
  Step 1 - Load SMPLX:        27.05s
  Step 2 - Align FPS:         6.61s
  Step 3 - Init Retarget:     1.11s
  Step 4 - Init Visualization: 0.01s
  Step 5 - Process Frames:    73.91s (avg: 0.880s/frame)
  Step 6 - Convert Arrays:    0.00s
  Step 7 - Forward Kinematics: 3.19s
  Step 8 - Save Data:         0.01s
Status: SUCCESS
==================================================

=== SUCCESS LOG - 2025-10-14 14:31:52 ===
Input file: /data/retarget/locomotion/raw/AMASS_SMPLXG/KIT/1229/open_pants_left_arm_04_stageii.npz
Output file: ../robot/ik_based/pkl/011028.pkl
Robot type: unitree_g1
Processing time: 107.43 seconds

STEP-BY-STEP TIMING:
  Step 1 - Load SMPLX:        36.27s
  Step 2 - Align FPS:         5.05s
  Step 3 - Init Retarget:     1.57s
  Step 4 - Init Visualization: 0.00s
  Step 5 - Process Frames:    57.23s (avg: 0.681s/frame)
  Step 6 - Convert Arrays:    0.02s
  Step 7 - Forward Kinematics: 3.24s
  Step 8 - Save Data:         0.03s
Status: SUCCESS
==================================================

=== SUCCESS LOG - 2025-10-14 14:31:56 ===
Input file: /data/retarget/locomotion/raw/AMASS_SMPLXG/KIT/1229/in_out_rotation_with_help_02_stageii.npz
Output file: ../robot/ik_based/pkl/011020.pkl
Robot type: unitree_g1
Processing time: 137.38 seconds

STEP-BY-STEP TIMING:
  Step 1 - Load SMPLX:        27.42s
  Step 2 - Align FPS:         9.97s
  Step 3 - Init Retarget:     0.83s
  Step 4 - Init Visualization: 0.00s
  Step 5 - Process Frames:    91.56s (avg: 0.640s/frame)
  Step 6 - Convert Arrays:    0.00s
  Step 7 - Forward Kinematics: 5.03s
  Step 8 - Save Data:         0.03s
Status: SUCCESS
==================================================

=== SUCCESS LOG - 2025-10-14 14:32:15 ===
Input file: /data/retarget/locomotion/raw/AMASS_SMPLXG/KIT/1229/in_out_rotation_with_help_03_stageii.npz
Output file: ../robot/ik_based/pkl/011021.pkl
Robot type: unitree_g1
Processing time: 151.65 seconds

STEP-BY-STEP TIMING:
  Step 1 - Load SMPLX:        26.63s
  Step 2 - Align FPS:         13.90s
  Step 3 - Init Retarget:     1.68s
  Step 4 - Init Visualization: 0.00s
  Step 5 - Process Frames:    97.39s (avg: 0.637s/frame)
  Step 6 - Convert Arrays:    0.00s
  Step 7 - Forward Kinematics: 7.58s
  Step 8 - Save Data:         0.08s
Status: SUCCESS
==================================================

=== SUCCESS LOG - 2025-10-14 14:32:21 ===
Input file: /data/retarget/locomotion/raw/AMASS_SMPLXG/KIT/1229/in_out_rotation_with_help_05_stageii.npz
Output file: ../robot/ik_based/pkl/011023.pkl
Robot type: unitree_g1
Processing time: 148.11 seconds

STEP-BY-STEP TIMING:
  Step 1 - Load SMPLX:        27.54s
  Step 2 - Align FPS:         17.21s
  Step 3 - Init Retarget:     0.99s
  Step 4 - Init Visualization: 0.00s
  Step 5 - Process Frames:    92.81s (avg: 0.615s/frame)
  Step 6 - Convert Arrays:    0.05s
  Step 7 - Forward Kinematics: 4.87s
  Step 8 - Save Data:         0.04s
Status: SUCCESS
==================================================

=== SUCCESS LOG - 2025-10-14 14:32:25 ===
Input file: /data/retarget/locomotion/raw/AMASS_SMPLXG/KIT/1229/open_pants_left_arm_05_stageii.npz
Output file: ../robot/ik_based/pkl/011029.pkl
Robot type: unitree_g1
Processing time: 125.20 seconds

STEP-BY-STEP TIMING:
  Step 1 - Load SMPLX:        47.57s
  Step 2 - Align FPS:         5.32s
  Step 3 - Init Retarget:     0.90s
  Step 4 - Init Visualization: 0.00s
  Step 5 - Process Frames:    61.26s (avg: 0.738s/frame)
  Step 6 - Convert Arrays:    0.00s
  Step 7 - Forward Kinematics: 5.25s
  Step 8 - Save Data:         0.09s
Status: SUCCESS
==================================================

=== SUCCESS LOG - 2025-10-14 14:32:27 ===
Input file: /data/retarget/locomotion/raw/AMASS_SMPLXG/KIT/1229/in_out_rotation_with_help_04_stageii.npz
Output file: ../robot/ik_based/pkl/011022.pkl
Robot type: unitree_g1
Processing time: 154.11 seconds

STEP-BY-STEP TIMING:
  Step 1 - Load SMPLX:        27.11s
  Step 2 - Align FPS:         16.53s
  Step 3 - Init Retarget:     1.34s
  Step 4 - Init Visualization: 0.01s
  Step 5 - Process Frames:    98.81s (avg: 0.621s/frame)
  Step 6 - Convert Arrays:    0.00s
  Step 7 - Forward Kinematics: 5.29s
  Step 8 - Save Data:         0.07s
Status: SUCCESS
==================================================

=== SUCCESS LOG - 2025-10-14 14:32:40 ===
Input file: /data/retarget/locomotion/raw/AMASS_SMPLXG/KIT/1229/open_pants_right_arm_03_stageii.npz
Output file: ../robot/ik_based/pkl/011032.pkl
Robot type: unitree_g1
Processing time: 100.79 seconds

STEP-BY-STEP TIMING:
  Step 1 - Load SMPLX:        32.33s
  Step 2 - Align FPS:         4.43s
  Step 3 - Init Retarget:     1.25s
  Step 4 - Init Visualization: 0.04s
  Step 5 - Process Frames:    52.29s (avg: 0.654s/frame)
  Step 6 - Convert Arrays:    0.00s
  Step 7 - Forward Kinematics: 5.97s
  Step 8 - Save Data:         0.04s
Status: SUCCESS
==================================================

=== SUCCESS LOG - 2025-10-14 14:33:00 ===
Input file: /data/retarget/locomotion/raw/AMASS_SMPLXG/KIT/1229/open_pants_right_arm_01_stageii.npz
Output file: ../robot/ik_based/pkl/011030.pkl
Robot type: unitree_g1
Processing time: 136.72 seconds

STEP-BY-STEP TIMING:
  Step 1 - Load SMPLX:        38.88s
  Step 2 - Align FPS:         4.43s
  Step 3 - Init Retarget:     0.92s
  Step 4 - Init Visualization: 0.00s
  Step 5 - Process Frames:    80.44s (avg: 0.935s/frame)
  Step 6 - Convert Arrays:    0.02s
  Step 7 - Forward Kinematics: 5.90s
  Step 8 - Save Data:         0.06s
Status: SUCCESS
==================================================

=== SUCCESS LOG - 2025-10-14 14:33:27 ===
Input file: /data/retarget/locomotion/raw/AMASS_SMPLXG/KIT/1229/open_pants_right_arm_02_stageii.npz
Output file: ../robot/ik_based/pkl/011031.pkl
Robot type: unitree_g1
Processing time: 160.39 seconds

STEP-BY-STEP TIMING:
  Step 1 - Load SMPLX:        37.00s
  Step 2 - Align FPS:         7.05s
  Step 3 - Init Retarget:     0.77s
  Step 4 - Init Visualization: 0.00s
  Step 5 - Process Frames:    104.60s (avg: 0.968s/frame)
  Step 6 - Convert Arrays:    0.02s
  Step 7 - Forward Kinematics: 4.85s
  Step 8 - Save Data:         0.06s
Status: SUCCESS
==================================================

=== SUCCESS LOG - 2025-10-14 14:33:28 ===
Input file: /data/retarget/locomotion/raw/AMASS_SMPLXG/KIT/1229/take_book_from_shelf_left_arm_01_stageii.npz
Output file: ../robot/ik_based/pkl/011041.pkl
Robot type: unitree_g1
Processing time: 109.11 seconds

STEP-BY-STEP TIMING:
  Step 1 - Load SMPLX:        26.43s
  Step 2 - Align FPS:         5.84s
  Step 3 - Init Retarget:     1.54s
  Step 4 - Init Visualization: 0.00s
  Step 5 - Process Frames:    63.13s (avg: 0.799s/frame)
  Step 6 - Convert Arrays:    0.00s
  Step 7 - Forward Kinematics: 5.75s
  Step 8 - Save Data:         0.17s
Status: SUCCESS
==================================================

=== SUCCESS LOG - 2025-10-14 14:33:29 ===
Input file: /data/retarget/locomotion/raw/AMASS_SMPLXG/KIT/1229/open_pants_right_arm_06_stageii.npz
Output file: ../robot/ik_based/pkl/011035.pkl
Robot type: unitree_g1
Processing time: 129.38 seconds

STEP-BY-STEP TIMING:
  Step 1 - Load SMPLX:        28.75s
  Step 2 - Align FPS:         5.39s
  Step 3 - Init Retarget:     0.98s
  Step 4 - Init Visualization: 0.01s
  Step 5 - Process Frames:    81.60s (avg: 0.917s/frame)
  Step 6 - Convert Arrays:    0.00s
  Step 7 - Forward Kinematics: 5.30s
  Step 8 - Save Data:         0.19s
Status: SUCCESS
==================================================

=== SUCCESS LOG - 2025-10-14 14:33:30 ===
Input file: /data/retarget/locomotion/raw/AMASS_SMPLXG/KIT/1229/open_pants_right_arm_05_stageii.npz
Output file: ../robot/ik_based/pkl/011034.pkl
Robot type: unitree_g1
Processing time: 140.68 seconds

STEP-BY-STEP TIMING:
  Step 1 - Load SMPLX:        30.66s
  Step 2 - Align FPS:         4.39s
  Step 3 - Init Retarget:     0.88s
  Step 4 - Init Visualization: 0.00s
  Step 5 - Process Frames:    92.59s (avg: 1.157s/frame)
  Step 6 - Convert Arrays:    0.00s
  Step 7 - Forward Kinematics: 5.37s
  Step 8 - Save Data:         0.21s
Status: SUCCESS
==================================================

=== SUCCESS LOG - 2025-10-14 14:33:35 ===
Input file: /data/retarget/locomotion/raw/AMASS_SMPLXG/KIT/1229/open_pants_right_arm_04_stageii.npz
Output file: ../robot/ik_based/pkl/011033.pkl
Robot type: unitree_g1
Processing time: 150.57 seconds

STEP-BY-STEP TIMING:
  Step 1 - Load SMPLX:        30.20s
  Step 2 - Align FPS:         4.94s
  Step 3 - Init Retarget:     0.79s
  Step 4 - Init Visualization: 0.00s
  Step 5 - Process Frames:    102.32s (avg: 1.163s/frame)
  Step 6 - Convert Arrays:    0.03s
  Step 7 - Forward Kinematics: 7.59s
  Step 8 - Save Data:         0.06s
Status: SUCCESS
==================================================

=== SUCCESS LOG - 2025-10-14 14:33:40 ===
Input file: /data/retarget/locomotion/raw/AMASS_SMPLXG/KIT/1229/take_book_from_shelf_left_arm_03_stageii.npz
Output file: ../robot/ik_based/pkl/011043.pkl
Robot type: unitree_g1
Processing time: 109.64 seconds

STEP-BY-STEP TIMING:
  Step 1 - Load SMPLX:        31.95s
  Step 2 - Align FPS:         5.06s
  Step 3 - Init Retarget:     1.31s
  Step 4 - Init Visualization: 0.00s
  Step 5 - Process Frames:    64.54s (avg: 0.768s/frame)
  Step 6 - Convert Arrays:    0.00s
  Step 7 - Forward Kinematics: 3.26s
  Step 8 - Save Data:         0.12s
Status: SUCCESS
==================================================

=== SUCCESS LOG - 2025-10-14 14:34:11 ===
Input file: /data/retarget/locomotion/raw/AMASS_SMPLXG/KIT/1229/take_book_from_shelf_left_arm_02_stageii.npz
Output file: ../robot/ik_based/pkl/011042.pkl
Robot type: unitree_g1
Processing time: 144.06 seconds

STEP-BY-STEP TIMING:
  Step 1 - Load SMPLX:        29.87s
  Step 2 - Align FPS:         5.26s
  Step 3 - Init Retarget:     0.96s
  Step 4 - Init Visualization: 0.00s
  Step 5 - Process Frames:    96.07s (avg: 1.172s/frame)
  Step 6 - Convert Arrays:    0.00s
  Step 7 - Forward Kinematics: 5.82s
  Step 8 - Save Data:         0.09s
Status: SUCCESS
==================================================

=== SUCCESS LOG - 2025-10-14 14:34:15 ===
Input file: /data/retarget/locomotion/raw/AMASS_SMPLXG/KIT/1229/supination_with_help_03_stageii.npz
Output file: ../robot/ik_based/pkl/011038.pkl
Robot type: unitree_g1
Processing time: 161.09 seconds

STEP-BY-STEP TIMING:
  Step 1 - Load SMPLX:        27.02s
  Step 2 - Align FPS:         14.71s
  Step 3 - Init Retarget:     1.00s
  Step 4 - Init Visualization: 0.01s
  Step 5 - Process Frames:    104.54s (avg: 0.653s/frame)
  Step 6 - Convert Arrays:    0.01s
  Step 7 - Forward Kinematics: 6.80s
  Step 8 - Save Data:         0.11s
Status: SUCCESS
==================================================

=== SUCCESS LOG - 2025-10-14 14:34:24 ===
Input file: /data/retarget/locomotion/raw/AMASS_SMPLXG/KIT/1229/take_book_from_shelf_left_arm_04_stageii.npz
Output file: ../robot/ik_based/pkl/011044.pkl
Robot type: unitree_g1
Processing time: 151.50 seconds

STEP-BY-STEP TIMING:
  Step 1 - Load SMPLX:        32.69s
  Step 2 - Align FPS:         5.65s
  Step 3 - Init Retarget:     1.03s
  Step 4 - Init Visualization: 0.01s
  Step 5 - Process Frames:    101.73s (avg: 1.130s/frame)
  Step 6 - Convert Arrays:    0.01s
  Step 7 - Forward Kinematics: 6.06s
  Step 8 - Save Data:         0.13s
Status: SUCCESS
==================================================

=== SUCCESS LOG - 2025-10-14 14:34:27 ===
Input file: /data/retarget/locomotion/raw/AMASS_SMPLXG/KIT/1229/take_book_from_shelf_right_arm_02_stageii.npz
Output file: ../robot/ik_based/pkl/011047.pkl
Robot type: unitree_g1
Processing time: 124.90 seconds

STEP-BY-STEP TIMING:
  Step 1 - Load SMPLX:        40.16s
  Step 2 - Align FPS:         7.40s
  Step 3 - Init Retarget:     2.52s
  Step 4 - Init Visualization: 0.04s
  Step 5 - Process Frames:    65.42s (avg: 0.779s/frame)
  Step 6 - Convert Arrays:    0.00s
  Step 7 - Forward Kinematics: 4.79s
  Step 8 - Save Data:         0.03s
Status: SUCCESS
==================================================

=== SUCCESS LOG - 2025-10-14 14:34:27 ===
Input file: /data/retarget/locomotion/raw/AMASS_SMPLXG/KIT/1229/supination_with_help_02_stageii.npz
Output file: ../robot/ik_based/pkl/011037.pkl
Robot type: unitree_g1
Processing time: 182.73 seconds

STEP-BY-STEP TIMING:
  Step 1 - Load SMPLX:        29.52s
  Step 2 - Align FPS:         18.32s
  Step 3 - Init Retarget:     1.20s
  Step 4 - Init Visualization: 0.00s
  Step 5 - Process Frames:    123.60s (avg: 0.668s/frame)
  Step 6 - Convert Arrays:    0.01s
  Step 7 - Forward Kinematics: 5.44s
  Step 8 - Save Data:         0.21s
Status: SUCCESS
==================================================

=== SUCCESS LOG - 2025-10-14 14:34:28 ===
Input file: /data/retarget/locomotion/raw/AMASS_SMPLXG/KIT/1229/take_book_from_shelf_right_arm_03_stageii.npz
Output file: ../robot/ik_based/pkl/011048.pkl
Robot type: unitree_g1
Processing time: 122.32 seconds

STEP-BY-STEP TIMING:
  Step 1 - Load SMPLX:        39.70s
  Step 2 - Align FPS:         5.79s
  Step 3 - Init Retarget:     3.81s
  Step 4 - Init Visualization: 0.03s
  Step 5 - Process Frames:    63.91s (avg: 0.789s/frame)
  Step 6 - Convert Arrays:    0.02s
  Step 7 - Forward Kinematics: 4.56s
  Step 8 - Save Data:         0.06s
Status: SUCCESS
==================================================

=== SUCCESS LOG - 2025-10-14 14:34:29 ===
Input file: /data/retarget/locomotion/raw/AMASS_SMPLXG/KIT/1229/take_book_from_shelf_right_arm_04_stageii.npz
Output file: ../robot/ik_based/pkl/011049.pkl
Robot type: unitree_g1
Processing time: 119.68 seconds

STEP-BY-STEP TIMING:
  Step 1 - Load SMPLX:        37.77s
  Step 2 - Align FPS:         4.31s
  Step 3 - Init Retarget:     4.02s
  Step 4 - Init Visualization: 0.04s
  Step 5 - Process Frames:    64.46s (avg: 0.786s/frame)
  Step 6 - Convert Arrays:    0.01s
  Step 7 - Forward Kinematics: 4.49s
  Step 8 - Save Data:         0.03s
Status: SUCCESS
==================================================

=== SUCCESS LOG - 2025-10-14 14:34:31 ===
Input file: /data/retarget/locomotion/raw/AMASS_SMPLXG/KIT/1229/supination_with_help_05_stageii.npz
Output file: ../robot/ik_based/pkl/011040.pkl
Robot type: unitree_g1
Processing time: 175.99 seconds

STEP-BY-STEP TIMING:
  Step 1 - Load SMPLX:        26.94s
  Step 2 - Align FPS:         15.31s
  Step 3 - Init Retarget:     0.86s
  Step 4 - Init Visualization: 0.10s
  Step 5 - Process Frames:    122.63s (avg: 0.681s/frame)
  Step 6 - Convert Arrays:    0.02s
  Step 7 - Forward Kinematics: 5.65s
  Step 8 - Save Data:         0.07s
Status: SUCCESS
==================================================

=== SUCCESS LOG - 2025-10-14 14:34:35 ===
Input file: /data/retarget/locomotion/raw/AMASS_SMPLXG/KIT/1229/supination_with_help_04_stageii.npz
Output file: ../robot/ik_based/pkl/011039.pkl
Robot type: unitree_g1
Processing time: 180.09 seconds

STEP-BY-STEP TIMING:
  Step 1 - Load SMPLX:        28.38s
  Step 2 - Align FPS:         15.44s
  Step 3 - Init Retarget:     0.94s
  Step 4 - Init Visualization: 0.00s
  Step 5 - Process Frames:    127.18s (avg: 0.662s/frame)
  Step 6 - Convert Arrays:    0.03s
  Step 7 - Forward Kinematics: 4.35s
  Step 8 - Save Data:         0.04s
Status: SUCCESS
==================================================

=== SUCCESS LOG - 2025-10-14 14:34:45 ===
Input file: /data/retarget/locomotion/raw/AMASS_SMPLXG/KIT/1229/take_book_from_shelf_left_arm_05_stageii.npz
Output file: ../robot/ik_based/pkl/011045.pkl
Robot type: unitree_g1
Processing time: 168.13 seconds

STEP-BY-STEP TIMING:
  Step 1 - Load SMPLX:        36.69s
  Step 2 - Align FPS:         5.32s
  Step 3 - Init Retarget:     1.04s
  Step 4 - Init Visualization: 0.03s
  Step 5 - Process Frames:    118.20s (avg: 1.359s/frame)
  Step 6 - Convert Arrays:    0.00s
  Step 7 - Forward Kinematics: 3.96s
  Step 8 - Save Data:         0.03s
Status: SUCCESS
==================================================

=== SUCCESS LOG - 2025-10-14 14:34:52 ===
Input file: /data/retarget/locomotion/raw/AMASS_SMPLXG/KIT/1229/supination_with_help_01_stageii.npz
Output file: ../robot/ik_based/pkl/011036.pkl
Robot type: unitree_g1
Processing time: 212.16 seconds

STEP-BY-STEP TIMING:
  Step 1 - Load SMPLX:        30.13s
  Step 2 - Align FPS:         12.28s
  Step 3 - Init Retarget:     1.06s
  Step 4 - Init Visualization: 0.00s
  Step 5 - Process Frames:    161.19s (avg: 0.848s/frame)
  Step 6 - Convert Arrays:    0.00s
  Step 7 - Forward Kinematics: 3.68s
  Step 8 - Save Data:         0.05s
Status: SUCCESS
==================================================

=== SUCCESS LOG - 2025-10-14 14:35:14 ===
Input file: /data/retarget/locomotion/raw/AMASS_SMPLXG/KIT/1229/take_book_from_shelf_right_arm_01_stageii.npz
Output file: ../robot/ik_based/pkl/011046.pkl
Robot type: unitree_g1
Processing time: 177.97 seconds

STEP-BY-STEP TIMING:
  Step 1 - Load SMPLX:        37.07s
  Step 2 - Align FPS:         5.42s
  Step 3 - Init Retarget:     1.81s
  Step 4 - Init Visualization: 0.00s
  Step 5 - Process Frames:    123.92s (avg: 1.169s/frame)
  Step 6 - Convert Arrays:    0.02s
  Step 7 - Forward Kinematics: 4.38s
  Step 8 - Save Data:         0.14s
Status: SUCCESS
==================================================

=== SUCCESS LOG - 2025-10-14 14:35:39 ===
Input file: /data/retarget/locomotion/raw/AMASS_SMPLXG/KIT/1229/take_book_from_shelf_right_arm_05_stageii.npz
Output file: ../robot/ik_based/pkl/011050.pkl
Robot type: unitree_g1
Processing time: 177.27 seconds

STEP-BY-STEP TIMING:
  Step 1 - Load SMPLX:        39.92s
  Step 2 - Align FPS:         5.11s
  Step 3 - Init Retarget:     3.53s
  Step 4 - Init Visualization: 0.00s
  Step 5 - Process Frames:    115.53s (avg: 1.328s/frame)
  Step 6 - Convert Arrays:    0.00s
  Step 7 - Forward Kinematics: 6.68s
  Step 8 - Save Data:         0.05s
Status: SUCCESS
==================================================

=== SUCCESS LOG - 2025-10-14 14:36:06 ===
Input file: /data/retarget/locomotion/raw/AMASS_SMPLXG/KIT/1229/take_book_from_shelf_right_arm_06_stageii.npz
Output file: ../robot/ik_based/pkl/011051.pkl
Robot type: unitree_g1
Processing time: 184.23 seconds

STEP-BY-STEP TIMING:
  Step 1 - Load SMPLX:        39.52s
  Step 2 - Align FPS:         4.45s
  Step 3 - Init Retarget:     0.89s
  Step 4 - Init Visualization: 0.00s
  Step 5 - Process Frames:    127.09s (avg: 1.381s/frame)
  Step 6 - Convert Arrays:    0.00s
  Step 7 - Forward Kinematics: 5.69s
  Step 8 - Save Data:         0.10s
Status: SUCCESS
==================================================

=== SUCCESS LOG - 2025-10-14 14:36:16 ===
Input file: /data/retarget/locomotion/raw/AMASS_SMPLXG/KIT/1229/take_of_t-shirt_left_arm_03_stageii.npz
Output file: ../robot/ik_based/pkl/011059.pkl
Robot type: unitree_g1
Processing time: 119.40 seconds

STEP-BY-STEP TIMING:
  Step 1 - Load SMPLX:        30.40s
  Step 2 - Align FPS:         4.01s
  Step 3 - Init Retarget:     0.68s
  Step 4 - Init Visualization: 0.01s
  Step 5 - Process Frames:    71.37s (avg: 0.811s/frame)
  Step 6 - Convert Arrays:    0.01s
  Step 7 - Forward Kinematics: 7.44s
  Step 8 - Save Data:         0.07s
Status: SUCCESS
==================================================

=== SUCCESS LOG - 2025-10-14 14:36:20 ===
Input file: /data/retarget/locomotion/raw/AMASS_SMPLXG/KIT/1229/take_book_from_shelf_with_help_02_stageii.npz
Output file: ../robot/ik_based/pkl/011053.pkl
Robot type: unitree_g1
Processing time: 170.49 seconds

STEP-BY-STEP TIMING:
  Step 1 - Load SMPLX:        33.18s
  Step 2 - Align FPS:         15.50s
  Step 3 - Init Retarget:     2.76s
  Step 4 - Init Visualization: 0.01s
  Step 5 - Process Frames:    106.95s (avg: 0.718s/frame)
  Step 6 - Convert Arrays:    0.00s
  Step 7 - Forward Kinematics: 6.50s
  Step 8 - Save Data:         0.04s
Status: SUCCESS
==================================================

=== SUCCESS LOG - 2025-10-14 14:36:48 ===
Input file: /data/retarget/locomotion/raw/AMASS_SMPLXG/KIT/1229/take_of_t-shirt_left_arm_01_stageii.npz
Output file: ../robot/ik_based/pkl/011057.pkl
Robot type: unitree_g1
Processing time: 186.68 seconds

STEP-BY-STEP TIMING:
  Step 1 - Load SMPLX:        37.90s
  Step 2 - Align FPS:         5.86s
  Step 3 - Init Retarget:     0.73s
  Step 4 - Init Visualization: 0.00s
  Step 5 - Process Frames:    133.61s (avg: 1.273s/frame)
  Step 6 - Convert Arrays:    0.03s
  Step 7 - Forward Kinematics: 5.26s
  Step 8 - Save Data:         0.04s
Status: SUCCESS
==================================================

=== SUCCESS LOG - 2025-10-14 14:36:49 ===
Input file: /data/retarget/locomotion/raw/AMASS_SMPLXG/KIT/1229/take_book_from_shelf_with_help_05_stageii.npz
Output file: ../robot/ik_based/pkl/011056.pkl
Robot type: unitree_g1
Processing time: 192.75 seconds

STEP-BY-STEP TIMING:
  Step 1 - Load SMPLX:        31.74s
  Step 2 - Align FPS:         13.91s
  Step 3 - Init Retarget:     1.38s
  Step 4 - Init Visualization: 0.00s
  Step 5 - Process Frames:    136.25s (avg: 0.831s/frame)
  Step 6 - Convert Arrays:    0.04s
  Step 7 - Forward Kinematics: 5.63s
  Step 8 - Save Data:         0.15s
Status: SUCCESS
==================================================

=== SUCCESS LOG - 2025-10-14 14:36:49 ===
Input file: /data/retarget/locomotion/raw/AMASS_SMPLXG/KIT/1229/take_book_from_shelf_with_help_01_stageii.npz
Output file: ../robot/ik_based/pkl/011052.pkl
Robot type: unitree_g1
Processing time: 200.28 seconds

STEP-BY-STEP TIMING:
  Step 1 - Load SMPLX:        31.88s
  Step 2 - Align FPS:         18.86s
  Step 3 - Init Retarget:     2.64s
  Step 4 - Init Visualization: 0.00s
  Step 5 - Process Frames:    138.18s (avg: 0.694s/frame)
  Step 6 - Convert Arrays:    0.01s
  Step 7 - Forward Kinematics: 4.82s
  Step 8 - Save Data:         0.07s
Status: SUCCESS
==================================================

=== SUCCESS LOG - 2025-10-14 14:36:50 ===
Input file: /data/retarget/locomotion/raw/AMASS_SMPLXG/KIT/1229/take_of_t-shirt_left_arm_02_stageii.npz
Output file: ../robot/ik_based/pkl/011058.pkl
Robot type: unitree_g1
Processing time: 157.75 seconds

STEP-BY-STEP TIMING:
  Step 1 - Load SMPLX:        32.03s
  Step 2 - Align FPS:         4.68s
  Step 3 - Init Retarget:     0.93s
  Step 4 - Init Visualization: 0.00s
  Step 5 - Process Frames:    112.70s (avg: 1.311s/frame)
  Step 6 - Convert Arrays:    0.01s
  Step 7 - Forward Kinematics: 4.08s
  Step 8 - Save Data:         0.04s
Status: SUCCESS
==================================================

=== SUCCESS LOG - 2025-10-14 14:36:52 ===
Input file: /data/retarget/locomotion/raw/AMASS_SMPLXG/KIT/1229/take_book_from_shelf_with_help_03_stageii.npz
Output file: ../robot/ik_based/pkl/011054.pkl
Robot type: unitree_g1
Processing time: 201.69 seconds

STEP-BY-STEP TIMING:
  Step 1 - Load SMPLX:        31.17s
  Step 2 - Align FPS:         15.89s
  Step 3 - Init Retarget:     2.09s
  Step 4 - Init Visualization: 0.03s
  Step 5 - Process Frames:    144.54s (avg: 0.970s/frame)
  Step 6 - Convert Arrays:    0.00s
  Step 7 - Forward Kinematics: 3.76s
  Step 8 - Save Data:         0.07s
Status: SUCCESS
==================================================

=== SUCCESS LOG - 2025-10-14 14:36:57 ===
Input file: /data/retarget/locomotion/raw/AMASS_SMPLXG/KIT/1229/take_of_t-shirt_right_arm_05_stageii.npz
Output file: ../robot/ik_based/pkl/011066.pkl
Robot type: unitree_g1
Processing time: 140.87 seconds

STEP-BY-STEP TIMING:
  Step 1 - Load SMPLX:        32.20s
  Step 2 - Align FPS:         4.86s
  Step 3 - Init Retarget:     1.71s
  Step 4 - Init Visualization: 0.00s
  Step 5 - Process Frames:    92.93s (avg: 1.133s/frame)
  Step 6 - Convert Arrays:    0.01s
  Step 7 - Forward Kinematics: 5.49s
  Step 8 - Save Data:         0.08s
Status: SUCCESS
==================================================

=== SUCCESS LOG - 2025-10-14 14:36:58 ===
Input file: /data/retarget/locomotion/raw/AMASS_SMPLXG/KIT/1229/take_of_t-shirt_left_arm_05_stageii.npz
Output file: ../robot/ik_based/pkl/011061.pkl
Robot type: unitree_g1
Processing time: 150.05 seconds

STEP-BY-STEP TIMING:
  Step 1 - Load SMPLX:        28.92s
  Step 2 - Align FPS:         6.32s
  Step 3 - Init Retarget:     3.95s
  Step 4 - Init Visualization: 0.07s
  Step 5 - Process Frames:    101.98s (avg: 1.214s/frame)
  Step 6 - Convert Arrays:    0.02s
  Step 7 - Forward Kinematics: 4.72s
  Step 8 - Save Data:         0.14s
Status: SUCCESS
==================================================

=== SUCCESS LOG - 2025-10-14 14:37:04 ===
Input file: /data/retarget/locomotion/raw/AMASS_SMPLXG/KIT/1229/take_book_from_shelf_with_help_04_stageii.npz
Output file: ../robot/ik_based/pkl/011055.pkl
Robot type: unitree_g1
Processing time: 212.92 seconds

STEP-BY-STEP TIMING:
  Step 1 - Load SMPLX:        33.75s
  Step 2 - Align FPS:         17.48s
  Step 3 - Init Retarget:     1.58s
  Step 4 - Init Visualization: 0.00s
  Step 5 - Process Frames:    151.75s (avg: 0.948s/frame)
  Step 6 - Convert Arrays:    0.01s
  Step 7 - Forward Kinematics: 4.74s
  Step 8 - Save Data:         0.03s
Status: SUCCESS
==================================================

=== SUCCESS LOG - 2025-10-14 14:37:10 ===
Input file: /data/retarget/locomotion/raw/AMASS_SMPLXG/KIT/1229/take_of_t-shirt_left_arm_04_stageii.npz
Output file: ../robot/ik_based/pkl/011060.pkl
Robot type: unitree_g1
Processing time: 165.51 seconds

STEP-BY-STEP TIMING:
  Step 1 - Load SMPLX:        27.94s
  Step 2 - Align FPS:         3.82s
  Step 3 - Init Retarget:     1.05s
  Step 4 - Init Visualization: 0.02s
  Step 5 - Process Frames:    126.91s (avg: 1.476s/frame)
  Step 6 - Convert Arrays:    0.00s
  Step 7 - Forward Kinematics: 3.35s
  Step 8 - Save Data:         0.01s
Status: SUCCESS
==================================================

=== SUCCESS LOG - 2025-10-14 14:37:15 ===
Input file: /data/retarget/locomotion/raw/AMASS_SMPLXG/KIT/1229/take_of_t-shirt_right_arm_01_stageii.npz
Output file: ../robot/ik_based/pkl/011062.pkl
Robot type: unitree_g1
Processing time: 167.05 seconds

STEP-BY-STEP TIMING:
  Step 1 - Load SMPLX:        28.14s
  Step 2 - Align FPS:         8.26s
  Step 3 - Init Retarget:     6.53s
  Step 4 - Init Visualization: 0.15s
  Step 5 - Process Frames:    117.18s (avg: 1.149s/frame)
  Step 6 - Convert Arrays:    0.01s
  Step 7 - Forward Kinematics: 3.55s
  Step 8 - Save Data:         0.09s
Status: SUCCESS
==================================================

=== SUCCESS LOG - 2025-10-14 14:37:31 ===
Input file: /data/retarget/locomotion/raw/AMASS_SMPLXG/KIT/1229/take_of_t-shirt_right_arm_03_stageii.npz
Output file: ../robot/ik_based/pkl/011064.pkl
Robot type: unitree_g1
Processing time: 181.24 seconds

STEP-BY-STEP TIMING:
  Step 1 - Load SMPLX:        29.05s
  Step 2 - Align FPS:         6.67s
  Step 3 - Init Retarget:     6.38s
  Step 4 - Init Visualization: 0.00s
  Step 5 - Process Frames:    127.71s (avg: 1.520s/frame)
  Step 6 - Convert Arrays:    0.01s
  Step 7 - Forward Kinematics: 5.98s
  Step 8 - Save Data:         0.24s
Status: SUCCESS
==================================================

=== SUCCESS LOG - 2025-10-14 14:37:47 ===
Input file: /data/retarget/locomotion/raw/AMASS_SMPLXG/KIT/1229/take_of_t-shirt_right_arm_04_stageii.npz
Output file: ../robot/ik_based/pkl/011065.pkl
Robot type: unitree_g1
Processing time: 194.80 seconds

STEP-BY-STEP TIMING:
  Step 1 - Load SMPLX:        28.91s
  Step 2 - Align FPS:         3.78s
  Step 3 - Init Retarget:     6.44s
  Step 4 - Init Visualization: 0.02s
  Step 5 - Process Frames:    145.85s (avg: 1.488s/frame)
  Step 6 - Convert Arrays:    0.01s
  Step 7 - Forward Kinematics: 5.07s
  Step 8 - Save Data:         0.06s
Status: SUCCESS
==================================================

=== SUCCESS LOG - 2025-10-14 14:38:01 ===
Input file: /data/retarget/locomotion/raw/AMASS_SMPLXG/KIT/1229/take_of_t-shirt_with_help_01_stageii.npz
Output file: ../robot/ik_based/pkl/011067.pkl
Robot type: unitree_g1
Processing time: 195.71 seconds

STEP-BY-STEP TIMING:
  Step 1 - Load SMPLX:        38.37s
  Step 2 - Align FPS:         12.52s
  Step 3 - Init Retarget:     1.45s
  Step 4 - Init Visualization: 0.02s
  Step 5 - Process Frames:    133.02s (avg: 1.147s/frame)
  Step 6 - Convert Arrays:    0.02s
  Step 7 - Forward Kinematics: 5.41s
  Step 8 - Save Data:         0.04s
Status: SUCCESS
==================================================

=== SUCCESS LOG - 2025-10-14 14:38:04 ===
Input file: /data/retarget/locomotion/raw/AMASS_SMPLXG/KIT/1229/take_of_t-shirt_with_help_02_stageii.npz
Output file: ../robot/ik_based/pkl/011068.pkl
Robot type: unitree_g1
Processing time: 191.93 seconds

STEP-BY-STEP TIMING:
  Step 1 - Load SMPLX:        36.95s
  Step 2 - Align FPS:         12.60s
  Step 3 - Init Retarget:     0.89s
  Step 4 - Init Visualization: 0.01s
  Step 5 - Process Frames:    130.96s (avg: 0.963s/frame)
  Step 6 - Convert Arrays:    0.00s
  Step 7 - Forward Kinematics: 5.60s
  Step 8 - Save Data:         0.11s
Status: SUCCESS
==================================================

=== SUCCESS LOG - 2025-10-14 14:38:09 ===
Input file: /data/retarget/locomotion/raw/AMASS_SMPLXG/KIT/1229/take_of_t-shirt_right_arm_02_stageii.npz
Output file: ../robot/ik_based/pkl/011063.pkl
Robot type: unitree_g1
Processing time: 219.57 seconds

STEP-BY-STEP TIMING:
  Step 1 - Load SMPLX:        28.81s
  Step 2 - Align FPS:         6.60s
  Step 3 - Init Retarget:     6.78s
  Step 4 - Init Visualization: 0.01s
  Step 5 - Process Frames:    166.61s (avg: 1.529s/frame)
  Step 6 - Convert Arrays:    0.00s
  Step 7 - Forward Kinematics: 6.45s
  Step 8 - Save Data:         0.10s
Status: SUCCESS
==================================================

=== SUCCESS LOG - 2025-10-14 14:38:13 ===
Input file: /data/retarget/locomotion/raw/AMASS_SMPLXG/KIT/1229/washing_movement_left_arm_01_stageii.npz
Output file: ../robot/ik_based/pkl/011072.pkl
Robot type: unitree_g1
Processing time: 115.92 seconds

STEP-BY-STEP TIMING:
  Step 1 - Load SMPLX:        38.44s
  Step 2 - Align FPS:         4.79s
  Step 3 - Init Retarget:     1.28s
  Step 4 - Init Visualization: 0.00s
  Step 5 - Process Frames:    61.23s (avg: 0.720s/frame)
  Step 6 - Convert Arrays:    0.01s
  Step 7 - Forward Kinematics: 5.27s
  Step 8 - Save Data:         0.07s
Status: SUCCESS
==================================================

=== ERROR LOG - 2025-10-14 14:38:40 ===
Input file: /data/retarget/locomotion/raw/AMASS_SMPLXG/KIT/1297/male_stagei.npz
Output file: ../robot/ik_based/pkl/011087.pkl
Robot type: unitree_g1
Processing time: 35.26 seconds
Error message: 'pose_body is not a file in the archive'
Error type: KeyError
==================================================

=== SUCCESS LOG - 2025-10-14 14:38:56 ===
Input file: /data/retarget/locomotion/raw/AMASS_SMPLXG/KIT/1229/washing_movement_left_arm_04_stageii.npz
Output file: ../robot/ik_based/pkl/011075.pkl
Robot type: unitree_g1
Processing time: 125.95 seconds

STEP-BY-STEP TIMING:
  Step 1 - Load SMPLX:        27.85s
  Step 2 - Align FPS:         7.08s
  Step 3 - Init Retarget:     4.69s
  Step 4 - Init Visualization: 0.05s
  Step 5 - Process Frames:    74.67s (avg: 0.747s/frame)
  Step 6 - Convert Arrays:    0.00s
  Step 7 - Forward Kinematics: 5.89s
  Step 8 - Save Data:         0.10s
Status: SUCCESS
==================================================

=== SUCCESS LOG - 2025-10-14 14:38:57 ===
Input file: /data/retarget/locomotion/raw/AMASS_SMPLXG/KIT/1229/washing_movement_left_arm_02_stageii.npz
Output file: ../robot/ik_based/pkl/011073.pkl
Robot type: unitree_g1
Processing time: 156.01 seconds

STEP-BY-STEP TIMING:
  Step 1 - Load SMPLX:        36.49s
  Step 2 - Align FPS:         4.95s
  Step 3 - Init Retarget:     0.74s
  Step 4 - Init Visualization: 0.00s
  Step 5 - Process Frames:    101.83s (avg: 1.157s/frame)
  Step 6 - Convert Arrays:    0.00s
  Step 7 - Forward Kinematics: 5.67s
  Step 8 - Save Data:         0.14s
Status: SUCCESS
==================================================

=== SUCCESS LOG - 2025-10-14 14:39:00 ===
Input file: /data/retarget/locomotion/raw/AMASS_SMPLXG/KIT/1229/washing_movement_right_arm_01_stageii.npz
Output file: ../robot/ik_based/pkl/011077.pkl
Robot type: unitree_g1
Processing time: 129.02 seconds

STEP-BY-STEP TIMING:
  Step 1 - Load SMPLX:        29.10s
  Step 2 - Align FPS:         6.79s
  Step 3 - Init Retarget:     5.75s
  Step 4 - Init Visualization: 0.02s
  Step 5 - Process Frames:    74.97s (avg: 0.735s/frame)
  Step 6 - Convert Arrays:    0.02s
  Step 7 - Forward Kinematics: 5.34s
  Step 8 - Save Data:         0.18s
Status: SUCCESS
==================================================

=== SUCCESS LOG - 2025-10-14 14:39:05 ===
Input file: /data/retarget/locomotion/raw/AMASS_SMPLXG/KIT/1229/washing_movement_left_arm_05_stageii.npz
Output file: ../robot/ik_based/pkl/011076.pkl
Robot type: unitree_g1
Processing time: 134.67 seconds

STEP-BY-STEP TIMING:
  Step 1 - Load SMPLX:        27.48s
  Step 2 - Align FPS:         6.39s
  Step 3 - Init Retarget:     1.70s
  Step 4 - Init Visualization: 0.03s
  Step 5 - Process Frames:    85.11s (avg: 0.753s/frame)
  Step 6 - Convert Arrays:    0.01s
  Step 7 - Forward Kinematics: 7.58s
  Step 8 - Save Data:         0.06s
Status: SUCCESS
==================================================

=== SUCCESS LOG - 2025-10-14 14:39:20 ===
Input file: /data/retarget/locomotion/raw/AMASS_SMPLXG/KIT/1229/take_of_t-shirt_with_help_03_stageii.npz
Output file: ../robot/ik_based/pkl/011069.pkl
Robot type: unitree_g1
Processing time: 243.82 seconds

STEP-BY-STEP TIMING:
  Step 1 - Load SMPLX:        45.28s
  Step 2 - Align FPS:         12.77s
  Step 3 - Init Retarget:     1.18s
  Step 4 - Init Visualization: 0.01s
  Step 5 - Process Frames:    174.86s (avg: 1.174s/frame)
  Step 6 - Convert Arrays:    0.00s
  Step 7 - Forward Kinematics: 5.48s
  Step 8 - Save Data:         0.05s
Status: SUCCESS
==================================================

=== SUCCESS LOG - 2025-10-14 14:39:20 ===
Input file: /data/retarget/locomotion/raw/AMASS_SMPLXG/KIT/1229/washing_movement_right_arm_03_stageii.npz
Output file: ../robot/ik_based/pkl/011079.pkl
Robot type: unitree_g1
Processing time: 142.14 seconds

STEP-BY-STEP TIMING:
  Step 1 - Load SMPLX:        29.82s
  Step 2 - Align FPS:         6.03s
  Step 3 - Init Retarget:     0.99s
  Step 4 - Init Visualization: 0.00s
  Step 5 - Process Frames:    95.70s (avg: 1.029s/frame)
  Step 6 - Convert Arrays:    0.00s
  Step 7 - Forward Kinematics: 5.32s
  Step 8 - Save Data:         0.05s
Status: SUCCESS
==================================================

=== SUCCESS LOG - 2025-10-14 14:39:25 ===
Input file: /data/retarget/locomotion/raw/AMASS_SMPLXG/KIT/1229/washing_movement_right_arm_02_stageii.npz
Output file: ../robot/ik_based/pkl/011078.pkl
Robot type: unitree_g1
Processing time: 151.69 seconds

STEP-BY-STEP TIMING:
  Step 1 - Load SMPLX:        26.98s
  Step 2 - Align FPS:         6.67s
  Step 3 - Init Retarget:     5.80s
  Step 4 - Init Visualization: 0.08s
  Step 5 - Process Frames:    103.13s (avg: 1.031s/frame)
  Step 6 - Convert Arrays:    0.01s
  Step 7 - Forward Kinematics: 5.12s
  Step 8 - Save Data:         0.07s
Status: SUCCESS
==================================================

=== SUCCESS LOG - 2025-10-14 14:39:31 ===
Input file: /data/retarget/locomotion/raw/AMASS_SMPLXG/KIT/1229/washing_movement_left_arm_03_stageii.npz
Output file: ../robot/ik_based/pkl/011074.pkl
Robot type: unitree_g1
Processing time: 161.47 seconds

STEP-BY-STEP TIMING:
  Step 1 - Load SMPLX:        27.93s
  Step 2 - Align FPS:         7.57s
  Step 3 - Init Retarget:     4.80s
  Step 4 - Init Visualization: 0.13s
  Step 5 - Process Frames:    112.68s (avg: 1.138s/frame)
  Step 6 - Convert Arrays:    0.01s
  Step 7 - Forward Kinematics: 4.72s
  Step 8 - Save Data:         0.08s
Status: SUCCESS
==================================================

=== SUCCESS LOG - 2025-10-14 14:39:36 ===
Input file: /data/retarget/locomotion/raw/AMASS_SMPLXG/KIT/1229/washing_movement_right_arm_05_stageii.npz
Output file: ../robot/ik_based/pkl/011081.pkl
Robot type: unitree_g1
Processing time: 150.63 seconds

STEP-BY-STEP TIMING:
  Step 1 - Load SMPLX:        33.46s
  Step 2 - Align FPS:         6.21s
  Step 3 - Init Retarget:     0.93s
  Step 4 - Init Visualization: 0.00s
  Step 5 - Process Frames:    102.94s (avg: 1.019s/frame)
  Step 6 - Convert Arrays:    0.02s
  Step 7 - Forward Kinematics: 4.06s
  Step 8 - Save Data:         0.09s
Status: SUCCESS
==================================================

=== SUCCESS LOG - 2025-10-14 14:39:40 ===
Input file: /data/retarget/locomotion/raw/AMASS_SMPLXG/KIT/1229/take_of_t-shirt_with_help_04_stageii.npz
Output file: ../robot/ik_based/pkl/011070.pkl
Robot type: unitree_g1
Processing time: 239.44 seconds

STEP-BY-STEP TIMING:
  Step 1 - Load SMPLX:        45.85s
  Step 2 - Align FPS:         12.23s
  Step 3 - Init Retarget:     1.78s
  Step 4 - Init Visualization: 0.01s
  Step 5 - Process Frames:    170.58s (avg: 1.093s/frame)
  Step 6 - Convert Arrays:    0.02s
  Step 7 - Forward Kinematics: 3.62s
  Step 8 - Save Data:         0.06s
Status: SUCCESS
==================================================

=== SUCCESS LOG - 2025-10-14 14:39:40 ===
Input file: /data/retarget/locomotion/raw/AMASS_SMPLXG/KIT/1229/washing_movement_right_arm_04_stageii.npz
Output file: ../robot/ik_based/pkl/011080.pkl
Robot type: unitree_g1
Processing time: 160.84 seconds

STEP-BY-STEP TIMING:
  Step 1 - Load SMPLX:        29.38s
  Step 2 - Align FPS:         7.34s
  Step 3 - Init Retarget:     1.03s
  Step 4 - Init Visualization: 0.01s
  Step 5 - Process Frames:    114.04s (avg: 1.018s/frame)
  Step 6 - Convert Arrays:    0.01s
  Step 7 - Forward Kinematics: 3.72s
  Step 8 - Save Data:         0.15s
Status: SUCCESS
==================================================

=== SUCCESS LOG - 2025-10-14 14:40:51 ===
Input file: /data/retarget/locomotion/raw/AMASS_SMPLXG/KIT/1229/take_of_t-shirt_with_help_05_stageii.npz
Output file: ../robot/ik_based/pkl/011071.pkl
Robot type: unitree_g1
Processing time: 283.69 seconds

STEP-BY-STEP TIMING:
  Step 1 - Load SMPLX:        40.41s
  Step 2 - Align FPS:         14.02s
  Step 3 - Init Retarget:     0.78s
  Step 4 - Init Visualization: 0.00s
  Step 5 - Process Frames:    209.36s (avg: 1.176s/frame)
  Step 6 - Convert Arrays:    0.01s
  Step 7 - Forward Kinematics: 11.47s
  Step 8 - Save Data:         0.08s
Status: SUCCESS
==================================================

=== SUCCESS LOG - 2025-10-14 14:41:06 ===
Input file: /data/retarget/locomotion/raw/AMASS_SMPLXG/KIT/1229/washing_movement_with_help_02_stageii.npz
Output file: ../robot/ik_based/pkl/011083.pkl
Robot type: unitree_g1
Processing time: 230.14 seconds

STEP-BY-STEP TIMING:
  Step 1 - Load SMPLX:        40.35s
  Step 2 - Align FPS:         9.48s
  Step 3 - Init Retarget:     1.03s
  Step 4 - Init Visualization: 0.00s
  Step 5 - Process Frames:    164.95s (avg: 1.320s/frame)
  Step 6 - Convert Arrays:    0.00s
  Step 7 - Forward Kinematics: 8.94s
  Step 8 - Save Data:         0.08s
Status: SUCCESS
==================================================

=== SUCCESS LOG - 2025-10-14 14:41:32 ===
Input file: /data/retarget/locomotion/raw/AMASS_SMPLXG/KIT/1229/washing_movement_with_help_01_stageii.npz
Output file: ../robot/ik_based/pkl/011082.pkl
Robot type: unitree_g1
Processing time: 260.75 seconds

STEP-BY-STEP TIMING:
  Step 1 - Load SMPLX:        37.73s
  Step 2 - Align FPS:         12.45s
  Step 3 - Init Retarget:     1.43s
  Step 4 - Init Visualization: 0.02s
  Step 5 - Process Frames:    197.14s (avg: 1.314s/frame)
  Step 6 - Convert Arrays:    0.02s
  Step 7 - Forward Kinematics: 5.32s
  Step 8 - Save Data:         0.11s
Status: SUCCESS
==================================================

=== SUCCESS LOG - 2025-10-14 14:41:43 ===
Input file: /data/retarget/locomotion/raw/AMASS_SMPLXG/KIT/1229/washing_movement_with_help_04_stageii.npz
Output file: ../robot/ik_based/pkl/011085.pkl
Robot type: unitree_g1
Processing time: 234.24 seconds

STEP-BY-STEP TIMING:
  Step 1 - Load SMPLX:        39.35s
  Step 2 - Align FPS:         12.43s
  Step 3 - Init Retarget:     1.19s
  Step 4 - Init Visualization: 0.00s
  Step 5 - Process Frames:    170.85s (avg: 1.124s/frame)
  Step 6 - Convert Arrays:    0.03s
  Step 7 - Forward Kinematics: 5.69s
  Step 8 - Save Data:         0.05s
Status: SUCCESS
==================================================

=== SUCCESS LOG - 2025-10-14 14:41:53 ===
Input file: /data/retarget/locomotion/raw/AMASS_SMPLXG/KIT/1229/washing_movement_with_help_03_stageii.npz
Output file: ../robot/ik_based/pkl/011084.pkl
Robot type: unitree_g1
Processing time: 260.45 seconds

STEP-BY-STEP TIMING:
  Step 1 - Load SMPLX:        39.64s
  Step 2 - Align FPS:         11.84s
  Step 3 - Init Retarget:     0.88s
  Step 4 - Init Visualization: 0.03s
  Step 5 - Process Frames:    196.79s (avg: 1.330s/frame)
  Step 6 - Convert Arrays:    0.01s
  Step 7 - Forward Kinematics: 6.89s
  Step 8 - Save Data:         0.09s
Status: SUCCESS
==================================================

=== SUCCESS LOG - 2025-10-14 14:41:59 ===
Input file: /data/retarget/locomotion/raw/AMASS_SMPLXG/KIT/1229/washing_movement_with_help_05_stageii.npz
Output file: ../robot/ik_based/pkl/011086.pkl
Robot type: unitree_g1
Processing time: 235.97 seconds

STEP-BY-STEP TIMING:
  Step 1 - Load SMPLX:        39.45s
  Step 2 - Align FPS:         11.62s
  Step 3 - Init Retarget:     2.17s
  Step 4 - Init Visualization: 0.00s
  Step 5 - Process Frames:    171.50s (avg: 1.280s/frame)
  Step 6 - Convert Arrays:    0.01s
  Step 7 - Forward Kinematics: 5.82s
  Step 8 - Save Data:         0.06s
Status: SUCCESS
==================================================

=== SUCCESS LOG - 2025-10-14 14:43:22 ===
Input file: /data/retarget/locomotion/raw/AMASS_SMPLXG/KIT/1297/wipe01_stageii.npz
Output file: ../robot/ik_based/pkl/011088.pkl
Robot type: unitree_g1
Processing time: 312.32 seconds

STEP-BY-STEP TIMING:
  Step 1 - Load SMPLX:        39.90s
  Step 2 - Align FPS:         22.87s
  Step 3 - Init Retarget:     0.79s
  Step 4 - Init Visualization: 0.00s
  Step 5 - Process Frames:    234.27s (avg: 0.816s/frame)
  Step 6 - Convert Arrays:    0.02s
  Step 7 - Forward Kinematics: 6.81s
  Step 8 - Save Data:         0.17s
Status: SUCCESS
==================================================

=== SUCCESS LOG - 2025-10-14 14:44:53 ===
Input file: /data/retarget/locomotion/raw/AMASS_SMPLXG/KIT/1297/wipe02_stageii.npz
Output file: ../robot/ik_based/pkl/011089.pkl
Robot type: unitree_g1
Processing time: 398.73 seconds

STEP-BY-STEP TIMING:
  Step 1 - Load SMPLX:        37.76s
  Step 2 - Align FPS:         25.61s
  Step 3 - Init Retarget:     0.83s
  Step 4 - Init Visualization: 0.00s
  Step 5 - Process Frames:    320.34s (avg: 0.836s/frame)
  Step 6 - Convert Arrays:    0.00s
  Step 7 - Forward Kinematics: 7.80s
  Step 8 - Save Data:         0.14s
Status: SUCCESS
==================================================

=== SUCCESS LOG - 2025-10-14 14:45:15 ===
Input file: /data/retarget/locomotion/raw/AMASS_SMPLXG/KIT/1297/wipe03_stageii.npz
Output file: ../robot/ik_based/pkl/011090.pkl
Robot type: unitree_g1
Processing time: 393.95 seconds

STEP-BY-STEP TIMING:
  Step 1 - Load SMPLX:        40.95s
  Step 2 - Align FPS:         26.92s
  Step 3 - Init Retarget:     1.27s
  Step 4 - Init Visualization: 0.00s
  Step 5 - Process Frames:    313.11s (avg: 0.860s/frame)
  Step 6 - Convert Arrays:    0.01s
  Step 7 - Forward Kinematics: 7.26s
  Step 8 - Save Data:         0.03s
Status: SUCCESS
==================================================

=== SUCCESS LOG - 2025-10-14 14:45:23 ===
Input file: /data/retarget/locomotion/raw/AMASS_SMPLXG/KIT/1297/wipe04_stageii.npz
Output file: ../robot/ik_based/pkl/011091.pkl
Robot type: unitree_g1
Processing time: 385.04 seconds

STEP-BY-STEP TIMING:
  Step 1 - Load SMPLX:        35.78s
  Step 2 - Align FPS:         26.83s
  Step 3 - Init Retarget:     1.10s
  Step 4 - Init Visualization: 0.00s
  Step 5 - Process Frames:    310.71s (avg: 0.914s/frame)
  Step 6 - Convert Arrays:    0.00s
  Step 7 - Forward Kinematics: 5.63s
  Step 8 - Save Data:         0.07s
Status: SUCCESS
==================================================

=== SUCCESS LOG - 2025-10-14 14:45:36 ===
Input file: /data/retarget/locomotion/raw/AMASS_SMPLXG/KIT/1297/wipe06_stageii.npz
Output file: ../robot/ik_based/pkl/011093.pkl
Robot type: unitree_g1
Processing time: 393.97 seconds

STEP-BY-STEP TIMING:
  Step 1 - Load SMPLX:        33.03s
  Step 2 - Align FPS:         32.23s
  Step 3 - Init Retarget:     1.20s
  Step 4 - Init Visualization: 0.01s
  Step 5 - Process Frames:    316.73s (avg: 0.868s/frame)
  Step 6 - Convert Arrays:    0.00s
  Step 7 - Forward Kinematics: 6.54s
  Step 8 - Save Data:         0.14s
Status: SUCCESS
==================================================

=== SUCCESS LOG - 2025-10-14 14:45:49 ===
Input file: /data/retarget/locomotion/raw/AMASS_SMPLXG/KIT/1297/wipe05_stageii.npz
Output file: ../robot/ik_based/pkl/011092.pkl
Robot type: unitree_g1
Processing time: 409.85 seconds

STEP-BY-STEP TIMING:
  Step 1 - Load SMPLX:        34.62s
  Step 2 - Align FPS:         29.88s
  Step 3 - Init Retarget:     1.12s
  Step 4 - Init Visualization: 0.00s
  Step 5 - Process Frames:    332.71s (avg: 0.857s/frame)
  Step 6 - Convert Arrays:    0.01s
  Step 7 - Forward Kinematics: 5.70s
  Step 8 - Save Data:         0.14s
Status: SUCCESS
==================================================

=== SUCCESS LOG - 2025-10-14 14:46:15 ===
Input file: /data/retarget/locomotion/raw/AMASS_SMPLXG/KIT/1297/wipe10_stageii.npz
Output file: ../robot/ik_based/pkl/011097.pkl
Robot type: unitree_g1
Processing time: 408.35 seconds

STEP-BY-STEP TIMING:
  Step 1 - Load SMPLX:        37.89s
  Step 2 - Align FPS:         37.17s
  Step 3 - Init Retarget:     1.44s
  Step 4 - Init Visualization: 0.00s
  Step 5 - Process Frames:    321.63s (avg: 0.874s/frame)
  Step 6 - Convert Arrays:    0.00s
  Step 7 - Forward Kinematics: 6.44s
  Step 8 - Save Data:         0.08s
Status: SUCCESS
==================================================

=== SUCCESS LOG - 2025-10-14 14:46:54 ===
Input file: /data/retarget/locomotion/raw/AMASS_SMPLXG/KIT/1297/wipe08_stageii.npz
Output file: ../robot/ik_based/pkl/011095.pkl
Robot type: unitree_g1
Processing time: 453.62 seconds

STEP-BY-STEP TIMING:
  Step 1 - Load SMPLX:        35.23s
  Step 2 - Align FPS:         43.56s
  Step 3 - Init Retarget:     1.85s
  Step 4 - Init Visualization: 0.00s
  Step 5 - Process Frames:    356.80s (avg: 0.854s/frame)
  Step 6 - Convert Arrays:    0.03s
  Step 7 - Forward Kinematics: 9.11s
  Step 8 - Save Data:         0.12s
Status: SUCCESS
==================================================

=== SUCCESS LOG - 2025-10-14 14:47:00 ===
Input file: /data/retarget/locomotion/raw/AMASS_SMPLXG/KIT/1297/wipe09_stageii.npz
Output file: ../robot/ik_based/pkl/011096.pkl
Robot type: unitree_g1
Processing time: 458.93 seconds

STEP-BY-STEP TIMING:
  Step 1 - Load SMPLX:        36.13s
  Step 2 - Align FPS:         37.69s
  Step 3 - Init Retarget:     1.64s
  Step 4 - Init Visualization: 0.01s
  Step 5 - Process Frames:    371.14s (avg: 0.849s/frame)
  Step 6 - Convert Arrays:    0.00s
  Step 7 - Forward Kinematics: 6.43s
  Step 8 - Save Data:         0.07s
Status: SUCCESS
==================================================

=== SUCCESS LOG - 2025-10-14 14:47:13 ===
Input file: /data/retarget/locomotion/raw/AMASS_SMPLXG/KIT/1297/wipe07_stageii.npz
Output file: ../robot/ik_based/pkl/011094.pkl
Robot type: unitree_g1
Processing time: 486.91 seconds

STEP-BY-STEP TIMING:
  Step 1 - Load SMPLX:        31.69s
  Step 2 - Align FPS:         38.04s
  Step 3 - Init Retarget:     1.90s
  Step 4 - Init Visualization: 0.03s
  Step 5 - Process Frames:    404.18s (avg: 0.862s/frame)
  Step 6 - Convert Arrays:    0.00s
  Step 7 - Forward Kinematics: 6.32s
  Step 8 - Save Data:         0.13s
Status: SUCCESS
==================================================

=== SUCCESS LOG - 2025-10-14 14:47:17 ===
Input file: /data/retarget/locomotion/raw/AMASS_SMPLXG/KIT/1297/wipe12_stageii.npz
Output file: ../robot/ik_based/pkl/011099.pkl
Robot type: unitree_g1
Processing time: 459.08 seconds

STEP-BY-STEP TIMING:
  Step 1 - Load SMPLX:        48.50s
  Step 2 - Align FPS:         44.93s
  Step 3 - Init Retarget:     0.98s
  Step 4 - Init Visualization: 0.00s
  Step 5 - Process Frames:    351.58s (avg: 0.864s/frame)
  Step 6 - Convert Arrays:    0.02s
  Step 7 - Forward Kinematics: 6.11s
  Step 8 - Save Data:         0.20s
Status: SUCCESS
==================================================

=== SUCCESS LOG - 2025-10-14 14:47:23 ===
Input file: /data/retarget/locomotion/raw/AMASS_SMPLXG/KIT/1297/wipe11_stageii.npz
Output file: ../robot/ik_based/pkl/011098.pkl
Robot type: unitree_g1
Processing time: 471.82 seconds

STEP-BY-STEP TIMING:
  Step 1 - Load SMPLX:        41.73s
  Step 2 - Align FPS:         46.19s
  Step 3 - Init Retarget:     1.42s
  Step 4 - Init Visualization: 0.00s
  Step 5 - Process Frames:    368.74s (avg: 0.868s/frame)
  Step 6 - Convert Arrays:    0.00s
  Step 7 - Forward Kinematics: 8.47s
  Step 8 - Save Data:         0.15s
Status: SUCCESS
==================================================

=== SUCCESS LOG - 2025-10-14 14:48:07 ===
Input file: /data/retarget/locomotion/raw/AMASS_SMPLXG/KIT/1297/wipe14_stageii.npz
Output file: ../robot/ik_based/pkl/011100.pkl
Robot type: unitree_g1
Processing time: 505.99 seconds

STEP-BY-STEP TIMING:
  Step 1 - Load SMPLX:        49.17s
  Step 2 - Align FPS:         43.15s
  Step 3 - Init Retarget:     1.17s
  Step 4 - Init Visualization: 0.00s
  Step 5 - Process Frames:    394.87s (avg: 0.835s/frame)
  Step 6 - Convert Arrays:    0.01s
  Step 7 - Forward Kinematics: 10.14s
  Step 8 - Save Data:         1.42s
Status: SUCCESS
==================================================

=== SUCCESS LOG - 2025-10-14 14:50:46 ===
Input file: /data/retarget/locomotion/raw/AMASS_SMPLXG/KIT/1297/wipe15_stageii.npz
Output file: ../robot/ik_based/pkl/011101.pkl
Robot type: unitree_g1
Processing time: 664.47 seconds

STEP-BY-STEP TIMING:
  Step 1 - Load SMPLX:        47.21s
  Step 2 - Align FPS:         62.81s
  Step 3 - Init Retarget:     1.56s
  Step 4 - Init Visualization: 0.00s
  Step 5 - Process Frames:    537.48s (avg: 0.970s/frame)
  Step 6 - Convert Arrays:    0.05s
  Step 7 - Forward Kinematics: 9.97s
  Step 8 - Save Data:         0.13s
Status: SUCCESS
==================================================

=== SUCCESS LOG - 2025-10-14 14:50:54 ===
Input file: /data/retarget/locomotion/raw/AMASS_SMPLXG/KIT/1346/Experiment3_subject1346_random_02_stageii.npz
Output file: ../robot/ik_based/pkl/011104.pkl
Robot type: unitree_g1
Processing time: 560.57 seconds

STEP-BY-STEP TIMING:
  Step 1 - Load SMPLX:        44.72s
  Step 2 - Align FPS:         40.02s
  Step 3 - Init Retarget:     1.74s
  Step 4 - Init Visualization: 0.00s
  Step 5 - Process Frames:    460.90s (avg: 1.182s/frame)
  Step 6 - Convert Arrays:    0.00s
  Step 7 - Forward Kinematics: 6.32s
  Step 8 - Save Data:         0.05s
Status: SUCCESS
==================================================

=== SUCCESS LOG - 2025-10-14 14:51:20 ===
Input file: /data/retarget/locomotion/raw/AMASS_SMPLXG/KIT/1297/wipe16_stageii.npz
Output file: ../robot/ik_based/pkl/011102.pkl
Robot type: unitree_g1
Processing time: 627.18 seconds

STEP-BY-STEP TIMING:
  Step 1 - Load SMPLX:        48.55s
  Step 2 - Align FPS:         52.70s
  Step 3 - Init Retarget:     1.24s
  Step 4 - Init Visualization: 0.02s
  Step 5 - Process Frames:    510.64s (avg: 0.928s/frame)
  Step 6 - Convert Arrays:    0.01s
  Step 7 - Forward Kinematics: 9.16s
  Step 8 - Save Data:         0.07s
Status: SUCCESS
==================================================

=== SUCCESS LOG - 2025-10-14 14:54:28 ===
Input file: /data/retarget/locomotion/raw/AMASS_SMPLXG/KIT/1346/Experiment3_subject1346_random_03_stageii.npz
Output file: ../robot/ik_based/pkl/011105.pkl
Robot type: unitree_g1
Processing time: 763.91 seconds

STEP-BY-STEP TIMING:
  Step 1 - Load SMPLX:        44.72s
  Step 2 - Align FPS:         74.60s
  Step 3 - Init Retarget:     1.15s
  Step 4 - Init Visualization: 0.01s
  Step 5 - Process Frames:    631.30s (avg: 1.072s/frame)
  Step 6 - Convert Arrays:    0.01s
  Step 7 - Forward Kinematics: 7.39s
  Step 8 - Save Data:         0.18s
Status: SUCCESS
==================================================

=== SUCCESS LOG - 2025-10-14 14:56:01 ===
Input file: /data/retarget/locomotion/raw/AMASS_SMPLXG/KIT/1346/Experiment3_subject1346_wash_back_position_horizontal_02_stageii.npz
Output file: ../robot/ik_based/pkl/011107.pkl
Robot type: unitree_g1
Processing time: 840.49 seconds

STEP-BY-STEP TIMING:
  Step 1 - Load SMPLX:        48.68s
  Step 2 - Align FPS:         76.70s
  Step 3 - Init Retarget:     1.29s
  Step 4 - Init Visualization: 0.01s
  Step 5 - Process Frames:    699.30s (avg: 0.999s/frame)
  Step 6 - Convert Arrays:    0.03s
  Step 7 - Forward Kinematics: 8.37s
  Step 8 - Save Data:         0.11s
Status: SUCCESS
==================================================

=== ERROR LOG - 2025-10-14 14:56:49 ===
Input file: /data/retarget/locomotion/raw/AMASS_SMPLXG/KIT/1346/female_stagei.npz
Output file: ../robot/ik_based/pkl/011125.pkl
Robot type: unitree_g1
Processing time: 46.80 seconds
Error message: 'pose_body is not a file in the archive'
Error type: KeyError
==================================================

=== SUCCESS LOG - 2025-10-14 14:57:32 ===
Input file: /data/retarget/locomotion/raw/AMASS_SMPLXG/KIT/1346/Experiment3_subject1346_wash_leg_position_bigcircles_01_stageii.npz
Output file: ../robot/ik_based/pkl/011108.pkl
Robot type: unitree_g1
Processing time: 848.33 seconds

STEP-BY-STEP TIMING:
  Step 1 - Load SMPLX:        55.49s
  Step 2 - Align FPS:         71.47s
  Step 3 - Init Retarget:     1.04s
  Step 4 - Init Visualization: 0.00s
  Step 5 - Process Frames:    706.07s (avg: 1.049s/frame)
  Step 6 - Convert Arrays:    0.01s
  Step 7 - Forward Kinematics: 7.84s
  Step 8 - Save Data:         0.09s
Status: SUCCESS
==================================================

=== SUCCESS LOG - 2025-10-14 14:58:02 ===
Input file: /data/retarget/locomotion/raw/AMASS_SMPLXG/KIT/1346/Experiment3_subject1346_wash_back_position_horizontal_01_stageii.npz
Output file: ../robot/ik_based/pkl/011106.pkl
Robot type: unitree_g1
Processing time: 968.40 seconds

STEP-BY-STEP TIMING:
  Step 1 - Load SMPLX:        42.95s
  Step 2 - Align FPS:         92.53s
  Step 3 - Init Retarget:     1.00s
  Step 4 - Init Visualization: 0.00s
  Step 5 - Process Frames:    820.46s (avg: 0.980s/frame)
  Step 6 - Convert Arrays:    0.01s
  Step 7 - Forward Kinematics: 6.62s
  Step 8 - Save Data:         0.11s
Status: SUCCESS
==================================================

=== SUCCESS LOG - 2025-10-14 14:58:59 ===
Input file: /data/retarget/locomotion/raw/AMASS_SMPLXG/KIT/1346/Experiment3_subject1346_wash_leg_position_vertical_01_stageii.npz
Output file: ../robot/ik_based/pkl/011114.pkl
Robot type: unitree_g1
Processing time: 763.08 seconds

STEP-BY-STEP TIMING:
  Step 1 - Load SMPLX:        47.39s
  Step 2 - Align FPS:         63.54s
  Step 3 - Init Retarget:     1.46s
  Step 4 - Init Visualization: 0.01s
  Step 5 - Process Frames:    636.31s (avg: 0.999s/frame)
  Step 6 - Convert Arrays:    0.02s
  Step 7 - Forward Kinematics: 7.74s
  Step 8 - Save Data:         0.06s
Status: SUCCESS
==================================================

=== SUCCESS LOG - 2025-10-14 14:59:19 ===
Input file: /data/retarget/locomotion/raw/AMASS_SMPLXG/KIT/1346/Experiment3_subject1346_wash_leg_position_bigcircles_02_stageii.npz
Output file: ../robot/ik_based/pkl/011109.pkl
Robot type: unitree_g1
Processing time: 863.97 seconds

STEP-BY-STEP TIMING:
  Step 1 - Load SMPLX:        43.42s
  Step 2 - Align FPS:         72.77s
  Step 3 - Init Retarget:     1.28s
  Step 4 - Init Visualization: 0.00s
  Step 5 - Process Frames:    734.32s (avg: 0.994s/frame)
  Step 6 - Convert Arrays:    0.00s
  Step 7 - Forward Kinematics: 7.31s
  Step 8 - Save Data:         0.08s
Status: SUCCESS
==================================================

=== SUCCESS LOG - 2025-10-14 15:00:17 ===
Input file: /data/retarget/locomotion/raw/AMASS_SMPLXG/KIT/1346/Experiment3_subject1346_wash_leg_position_horizontal_01_stageii.npz
Output file: ../robot/ik_based/pkl/011110.pkl
Robot type: unitree_g1
Processing time: 901.18 seconds

STEP-BY-STEP TIMING:
  Step 1 - Load SMPLX:        44.33s
  Step 2 - Align FPS:         74.94s
  Step 3 - Init Retarget:     2.18s
  Step 4 - Init Visualization: 0.00s
  Step 5 - Process Frames:    767.73s (avg: 0.986s/frame)
  Step 6 - Convert Arrays:    0.01s
  Step 7 - Forward Kinematics: 6.16s
  Step 8 - Save Data:         0.05s
Status: SUCCESS
==================================================

=== SUCCESS LOG - 2025-10-14 15:00:20 ===
Input file: /data/retarget/locomotion/raw/AMASS_SMPLXG/KIT/1346/Experiment3_subject1346_wash_leg_position_smallcircles_01_stageii.npz
Output file: ../robot/ik_based/pkl/011112.pkl
Robot type: unitree_g1
Processing time: 882.05 seconds

STEP-BY-STEP TIMING:
  Step 1 - Load SMPLX:        46.28s
  Step 2 - Align FPS:         80.64s
  Step 3 - Init Retarget:     1.00s
  Step 4 - Init Visualization: 0.00s
  Step 5 - Process Frames:    740.98s (avg: 1.004s/frame)
  Step 6 - Convert Arrays:    0.00s
  Step 7 - Forward Kinematics: 6.46s
  Step 8 - Save Data:         0.09s
Status: SUCCESS
==================================================

=== SUCCESS LOG - 2025-10-14 15:00:36 ===
Input file: /data/retarget/locomotion/raw/AMASS_SMPLXG/KIT/1346/Experiment3_subject1346_wash_leg_position_vertical_02_stageii.npz
Output file: ../robot/ik_based/pkl/011115.pkl
Robot type: unitree_g1
Processing time: 820.01 seconds

STEP-BY-STEP TIMING:
  Step 1 - Load SMPLX:        48.43s
  Step 2 - Align FPS:         90.09s
  Step 3 - Init Retarget:     0.86s
  Step 4 - Init Visualization: 0.00s
  Step 5 - Process Frames:    668.31s (avg: 0.976s/frame)
  Step 6 - Convert Arrays:    0.02s
  Step 7 - Forward Kinematics: 7.03s
  Step 8 - Save Data:         0.06s
Status: SUCCESS
==================================================

=== SUCCESS LOG - 2025-10-14 15:00:40 ===
Input file: /data/retarget/locomotion/raw/AMASS_SMPLXG/KIT/1346/Experiment3_subject1346_wash_leg_position_horizontal_02_stageii.npz
Output file: ../robot/ik_based/pkl/011111.pkl
Robot type: unitree_g1
Processing time: 915.85 seconds

STEP-BY-STEP TIMING:
  Step 1 - Load SMPLX:        42.76s
  Step 2 - Align FPS:         81.49s
  Step 3 - Init Retarget:     1.14s
  Step 4 - Init Visualization: 0.00s
  Step 5 - Process Frames:    779.60s (avg: 1.001s/frame)
  Step 6 - Convert Arrays:    0.01s
  Step 7 - Forward Kinematics: 6.30s
  Step 8 - Save Data:         0.07s
Status: SUCCESS
==================================================

=== SUCCESS LOG - 2025-10-14 15:00:50 ===
Input file: /data/retarget/locomotion/raw/AMASS_SMPLXG/KIT/1346/Experiment3_subject1346_wash_leg_position_smallcircles_02_stageii.npz
Output file: ../robot/ik_based/pkl/011113.pkl
Robot type: unitree_g1
Processing time: 899.20 seconds

STEP-BY-STEP TIMING:
  Step 1 - Load SMPLX:        44.62s
  Step 2 - Align FPS:         77.85s
  Step 3 - Init Retarget:     1.18s
  Step 4 - Init Visualization: 0.01s
  Step 5 - Process Frames:    764.56s (avg: 1.018s/frame)
  Step 6 - Convert Arrays:    0.02s
  Step 7 - Forward Kinematics: 6.48s
  Step 8 - Save Data:         0.11s
Status: SUCCESS
==================================================

=== SUCCESS LOG - 2025-10-14 15:04:30 ===
Input file: /data/retarget/locomotion/raw/AMASS_SMPLXG/KIT/1347/Experiment3_subject1347_random_01_stageii.npz
Output file: ../robot/ik_based/pkl/011126.pkl
Robot type: unitree_g1
Processing time: 459.56 seconds

STEP-BY-STEP TIMING:
  Step 1 - Load SMPLX:        50.51s
  Step 2 - Align FPS:         27.52s
  Step 3 - Init Retarget:     1.06s
  Step 4 - Init Visualization: 0.00s
  Step 5 - Process Frames:    369.05s (avg: 1.108s/frame)
  Step 6 - Convert Arrays:    0.00s
  Step 7 - Forward Kinematics: 5.48s
  Step 8 - Save Data:         0.14s
Status: SUCCESS
==================================================

=== SUCCESS LOG - 2025-10-14 15:05:06 ===
Input file: /data/retarget/locomotion/raw/AMASS_SMPLXG/KIT/1346/Experiment3_subject1346_random_01_stageii.npz
Output file: ../robot/ik_based/pkl/011103.pkl
Robot type: unitree_g1
Processing time: 1438.71 seconds

STEP-BY-STEP TIMING:
  Step 1 - Load SMPLX:        44.66s
  Step 2 - Align FPS:         107.38s
  Step 3 - Init Retarget:     1.19s
  Step 4 - Init Visualization: 0.00s
  Step 5 - Process Frames:    1274.94s (avg: 1.221s/frame)
  Step 6 - Convert Arrays:    0.01s
  Step 7 - Forward Kinematics: 5.59s
  Step 8 - Save Data:         0.08s
Status: SUCCESS
==================================================

=== SUCCESS LOG - 2025-10-14 15:08:21 ===
Input file: /data/retarget/locomotion/raw/AMASS_SMPLXG/KIT/1347/Experiment3_subject1347_random_02_stageii.npz
Output file: ../robot/ik_based/pkl/011127.pkl
Robot type: unitree_g1
Processing time: 646.94 seconds

STEP-BY-STEP TIMING:
  Step 1 - Load SMPLX:        41.47s
  Step 2 - Align FPS:         41.26s
  Step 3 - Init Retarget:     1.16s
  Step 4 - Init Visualization: 0.00s
  Step 5 - Process Frames:    547.96s (avg: 1.118s/frame)
  Step 6 - Convert Arrays:    0.00s
  Step 7 - Forward Kinematics: 9.07s
  Step 8 - Save Data:         0.11s
Status: SUCCESS
==================================================

=== SUCCESS LOG - 2025-10-14 15:08:34 ===
Input file: /data/retarget/locomotion/raw/AMASS_SMPLXG/KIT/1347/Experiment3_subject1347_random_03_stageii.npz
Output file: ../robot/ik_based/pkl/011128.pkl
Robot type: unitree_g1
Processing time: 629.82 seconds

STEP-BY-STEP TIMING:
  Step 1 - Load SMPLX:        54.20s
  Step 2 - Align FPS:         38.25s
  Step 3 - Init Retarget:     1.16s
  Step 4 - Init Visualization: 0.01s
  Step 5 - Process Frames:    520.02s (avg: 1.055s/frame)
  Step 6 - Convert Arrays:    0.00s
  Step 7 - Forward Kinematics: 8.56s
  Step 8 - Save Data:         0.24s
Status: SUCCESS
==================================================

=== SUCCESS LOG - 2025-10-14 15:12:47 ===
Input file: /data/retarget/locomotion/raw/AMASS_SMPLXG/KIT/1346/Experiment3a_subject1346_back_02_stageii.npz
Output file: ../robot/ik_based/pkl/011117.pkl
Robot type: unitree_g1
Processing time: 1530.47 seconds

STEP-BY-STEP TIMING:
  Step 1 - Load SMPLX:        50.29s
  Step 2 - Align FPS:         125.66s
  Step 3 - Init Retarget:     1.00s
  Step 4 - Init Visualization: 0.01s
  Step 5 - Process Frames:    1340.05s (avg: 1.202s/frame)
  Step 6 - Convert Arrays:    0.05s
  Step 7 - Forward Kinematics: 8.00s
  Step 8 - Save Data:         0.10s
Status: SUCCESS
==================================================

=== ERROR LOG - 2025-10-14 15:13:35 ===
Input file: /data/retarget/locomotion/raw/AMASS_SMPLXG/KIT/1347/male_stagei.npz
Output file: ../robot/ik_based/pkl/011140.pkl
Robot type: unitree_g1
Processing time: 45.81 seconds
Error message: 'pose_body is not a file in the archive'
Error type: KeyError
==================================================

=== SUCCESS LOG - 2025-10-14 15:14:10 ===
Input file: /data/retarget/locomotion/raw/AMASS_SMPLXG/KIT/1346/Experiment3a_subject1346_back_03_stageii.npz
Output file: ../robot/ik_based/pkl/011118.pkl
Robot type: unitree_g1
Processing time: 1612.22 seconds

STEP-BY-STEP TIMING:
  Step 1 - Load SMPLX:        49.33s
  Step 2 - Align FPS:         134.21s
  Step 3 - Init Retarget:     1.12s
  Step 4 - Init Visualization: 0.00s
  Step 5 - Process Frames:    1413.93s (avg: 1.135s/frame)
  Step 6 - Convert Arrays:    0.02s
  Step 7 - Forward Kinematics: 7.95s
  Step 8 - Save Data:         0.04s
Status: SUCCESS
==================================================

=== SUCCESS LOG - 2025-10-14 15:14:16 ===
Input file: /data/retarget/locomotion/raw/AMASS_SMPLXG/KIT/1346/Experiment3a_subject1346_legs_02_stageii.npz
Output file: ../robot/ik_based/pkl/011119.pkl
Robot type: unitree_g1
Processing time: 1611.43 seconds

STEP-BY-STEP TIMING:
  Step 1 - Load SMPLX:        50.85s
  Step 2 - Align FPS:         133.79s
  Step 3 - Init Retarget:     1.56s
  Step 4 - Init Visualization: 0.00s
  Step 5 - Process Frames:    1413.56s (avg: 1.134s/frame)
  Step 6 - Convert Arrays:    0.03s
  Step 7 - Forward Kinematics: 6.52s
  Step 8 - Save Data:         0.06s
Status: SUCCESS
==================================================

=== SUCCESS LOG - 2025-10-14 15:14:25 ===
Input file: /data/retarget/locomotion/raw/AMASS_SMPLXG/KIT/1346/Experiment3a_subject1346_legs_03_stageii.npz
Output file: ../robot/ik_based/pkl/011120.pkl
Robot type: unitree_g1
Processing time: 1575.39 seconds

STEP-BY-STEP TIMING:
  Step 1 - Load SMPLX:        65.39s
  Step 2 - Align FPS:         117.01s
  Step 3 - Init Retarget:     1.19s
  Step 4 - Init Visualization: 0.00s
[...]
Input file: /data/retarget/locomotion/raw/AMASS_SMPLXG/KIT/952/wipe_back_dabbing01_stageii.npz
Output file: ../robot/ik_based/pkl/014868.pkl
Robot type: unitree_g1
Processing time: 505.19 seconds

STEP-BY-STEP TIMING:
  Step 1 - Load SMPLX:        37.61s
  Step 2 - Align FPS:         18.31s
  Step 3 - Init Retarget:     0.80s
  Step 4 - Init Visualization: 0.00s
  Step 5 - Process Frames:    436.84s (avg: 1.769s/frame)
  Step 6 - Convert Arrays:    0.02s
  Step 7 - Forward Kinematics: 6.21s
  Step 8 - Save Data:         0.08s
Status: SUCCESS
==================================================

=== SUCCESS LOG - 2025-10-14 20:47:29 ===
Input file: /data/retarget/locomotion/raw/AMASS_SMPLXG/KIT/952/wipe_back_dabbing02_stageii.npz
Output file: ../robot/ik_based/pkl/014869.pkl
Robot type: unitree_g1
Processing time: 529.47 seconds

STEP-BY-STEP TIMING:
  Step 1 - Load SMPLX:        39.09s
  Step 2 - Align FPS:         19.25s
  Step 3 - Init Retarget:     0.81s
  Step 4 - Init Visualization: 0.00s
  Step 5 - Process Frames:    461.05s (avg: 1.740s/frame)
  Step 6 - Convert Arrays:    0.00s
  Step 7 - Forward Kinematics: 5.05s
  Step 8 - Save Data:         0.10s
Status: SUCCESS
==================================================

=== SUCCESS LOG - 2025-10-14 20:47:31 ===
Input file: /data/retarget/locomotion/raw/AMASS_SMPLXG/KIT/952/wipe_back_horizontal01_stageii.npz
Output file: ../robot/ik_based/pkl/014871.pkl
Robot type: unitree_g1
Processing time: 499.49 seconds

STEP-BY-STEP TIMING:
  Step 1 - Load SMPLX:        37.96s
  Step 2 - Align FPS:         23.95s
  Step 3 - Init Retarget:     3.51s
  Step 4 - Init Visualization: 0.02s
  Step 5 - Process Frames:    424.53s (avg: 1.671s/frame)
  Step 6 - Convert Arrays:    0.00s
  Step 7 - Forward Kinematics: 4.61s
  Step 8 - Save Data:         0.08s
Status: SUCCESS
==================================================

=== ERROR LOG - 2025-10-14 20:47:32 ===
Input file: /data/retarget/locomotion/raw/AMASS_SMPLXG/KIT/955/male_stagei.npz
Output file: ../robot/ik_based/pkl/014890.pkl
Robot type: unitree_g1
Processing time: 34.58 seconds
Error message: 'pose_body is not a file in the archive'
Error type: KeyError
==================================================

=== SUCCESS LOG - 2025-10-14 20:47:43 ===
Input file: /data/retarget/locomotion/raw/AMASS_SMPLXG/KIT/952/wipe_back_horizontal02_stageii.npz
Output file: ../robot/ik_based/pkl/014872.pkl
Robot type: unitree_g1
Processing time: 509.53 seconds

STEP-BY-STEP TIMING:
  Step 1 - Load SMPLX:        39.16s
  Step 2 - Align FPS:         21.50s
  Step 3 - Init Retarget:     3.14s
  Step 4 - Init Visualization: 0.01s
  Step 5 - Process Frames:    435.89s (avg: 1.703s/frame)
  Step 6 - Convert Arrays:    0.01s
  Step 7 - Forward Kinematics: 4.92s
  Step 8 - Save Data:         0.12s
Status: SUCCESS
==================================================

=== SUCCESS LOG - 2025-10-14 20:47:47 ===
Input file: /data/retarget/locomotion/raw/AMASS_SMPLXG/KIT/917/Experiment3a_09_stageii.npz
Output file: ../robot/ik_based/pkl/014806.pkl
Robot type: unitree_g1
Processing time: 1776.18 seconds

STEP-BY-STEP TIMING:
  Step 1 - Load SMPLX:        37.19s
  Step 2 - Align FPS:         165.73s
  Step 3 - Init Retarget:     1.00s
  Step 4 - Init Visualization: 0.02s
  Step 5 - Process Frames:    1562.05s (avg: 0.795s/frame)
  Step 6 - Convert Arrays:    0.01s
  Step 7 - Forward Kinematics: 4.85s
  Step 8 - Save Data:         0.10s
Status: SUCCESS
==================================================

=== SUCCESS LOG - 2025-10-14 20:47:56 ===
Input file: /data/retarget/locomotion/raw/AMASS_SMPLXG/KIT/952/wipe_arm_vertical01_stageii.npz
Output file: ../robot/ik_based/pkl/014864.pkl
Robot type: unitree_g1
Processing time: 649.56 seconds

STEP-BY-STEP TIMING:
  Step 1 - Load SMPLX:        39.55s
  Step 2 - Align FPS:         23.16s
  Step 3 - Init Retarget:     1.37s
  Step 4 - Init Visualization: 0.00s
  Step 5 - Process Frames:    576.32s (avg: 2.036s/frame)
  Step 6 - Convert Arrays:    0.00s
  Step 7 - Forward Kinematics: 4.42s
  Step 8 - Save Data:         0.10s
Status: SUCCESS
==================================================

=== SUCCESS LOG - 2025-10-14 20:48:36 ===
Input file: /data/retarget/locomotion/raw/AMASS_SMPLXG/KIT/917/Experiment3b_05_stageii.npz
Output file: ../robot/ik_based/pkl/014808.pkl
Robot type: unitree_g1
Processing time: 1809.60 seconds

STEP-BY-STEP TIMING:
  Step 1 - Load SMPLX:        43.74s
  Step 2 - Align FPS:         165.66s
  Step 3 - Init Retarget:     0.90s
  Step 4 - Init Visualization: 0.00s
  Step 5 - Process Frames:    1585.52s (avg: 0.768s/frame)
  Step 6 - Convert Arrays:    0.02s
  Step 7 - Forward Kinematics: 7.75s
  Step 8 - Save Data:         0.12s
Status: SUCCESS
==================================================

=== SUCCESS LOG - 2025-10-14 20:49:07 ===
Input file: /data/retarget/locomotion/raw/AMASS_SMPLXG/KIT/952/wipe_back_smallcircle03_stageii.npz
Output file: ../robot/ik_based/pkl/014876.pkl
Robot type: unitree_g1
Processing time: 479.87 seconds

STEP-BY-STEP TIMING:
  Step 1 - Load SMPLX:        41.72s
  Step 2 - Align FPS:         21.69s
  Step 3 - Init Retarget:     1.00s
  Step 4 - Init Visualization: 0.00s
  Step 5 - Process Frames:    405.93s (avg: 1.592s/frame)
  Step 6 - Convert Arrays:    0.00s
  Step 7 - Forward Kinematics: 5.21s
  Step 8 - Save Data:         0.11s
Status: SUCCESS
==================================================

=== SUCCESS LOG - 2025-10-14 20:49:29 ===
Input file: /data/retarget/locomotion/raw/AMASS_SMPLXG/KIT/952/wipe_back_smallcircle01_stageii.npz
Output file: ../robot/ik_based/pkl/014874.pkl
Robot type: unitree_g1
Processing time: 532.41 seconds

STEP-BY-STEP TIMING:
  Step 1 - Load SMPLX:        37.36s
  Step 2 - Align FPS:         18.58s
  Step 3 - Init Retarget:     0.97s
  Step 4 - Init Visualization: 0.00s
  Step 5 - Process Frames:    463.92s (avg: 1.764s/frame)
  Step 6 - Convert Arrays:    0.00s
  Step 7 - Forward Kinematics: 6.08s
  Step 8 - Save Data:         0.12s
Status: SUCCESS
==================================================

=== SUCCESS LOG - 2025-10-14 20:49:45 ===
Input file: /data/retarget/locomotion/raw/AMASS_SMPLXG/KIT/952/wipe_arm_bigcircles01_stageii.npz
Output file: ../robot/ik_based/pkl/014861.pkl
Robot type: unitree_g1
Processing time: 780.53 seconds

STEP-BY-STEP TIMING:
  Step 1 - Load SMPLX:        33.53s
  Step 2 - Align FPS:         26.26s
  Step 3 - Init Retarget:     0.86s
  Step 4 - Init Visualization: 0.00s
  Step 5 - Process Frames:    709.78s (avg: 2.081s/frame)
  Step 6 - Convert Arrays:    0.00s
  Step 7 - Forward Kinematics: 5.67s
  Step 8 - Save Data:         0.12s
Status: SUCCESS
==================================================

=== SUCCESS LOG - 2025-10-14 20:50:58 ===
Input file: /data/retarget/locomotion/raw/AMASS_SMPLXG/KIT/952/wipe_head_bigcircle01_stageii.npz
Output file: ../robot/ik_based/pkl/014880.pkl
Robot type: unitree_g1
Processing time: 480.56 seconds

STEP-BY-STEP TIMING:
  Step 1 - Load SMPLX:        32.61s
  Step 2 - Align FPS:         28.15s
  Step 3 - Init Retarget:     2.56s
  Step 4 - Init Visualization: 0.01s
  Step 5 - Process Frames:    405.02s (avg: 1.049s/frame)
  Step 6 - Convert Arrays:    0.00s
  Step 7 - Forward Kinematics: 6.90s
  Step 8 - Save Data:         0.10s
Status: SUCCESS
==================================================

=== SUCCESS LOG - 2025-10-14 20:52:34 ===
Input file: /data/retarget/locomotion/raw/AMASS_SMPLXG/KIT/952/wipe_head_smallcircle01_stageii.npz
Output file: ../robot/ik_based/pkl/014884.pkl
Robot type: unitree_g1
Processing time: 512.85 seconds

STEP-BY-STEP TIMING:
  Step 1 - Load SMPLX:        37.27s
  Step 2 - Align FPS:         23.04s
  Step 3 - Init Retarget:     0.88s
  Step 4 - Init Visualization: 0.00s
  Step 5 - Process Frames:    440.14s (avg: 1.380s/frame)
  Step 6 - Convert Arrays:    0.00s
  Step 7 - Forward Kinematics: 6.41s
  Step 8 - Save Data:         0.15s
Status: SUCCESS
==================================================

=== SUCCESS LOG - 2025-10-14 20:52:40 ===
Input file: /data/retarget/locomotion/raw/AMASS_SMPLXG/KIT/952/wipe_back_horizontal03_stageii.npz
Output file: ../robot/ik_based/pkl/014873.pkl
Robot type: unitree_g1
Processing time: 788.13 seconds

STEP-BY-STEP TIMING:
  Step 1 - Load SMPLX:        40.07s
  Step 2 - Align FPS:         18.10s
  Step 3 - Init Retarget:     0.92s
  Step 4 - Init Visualization: 0.00s
  Step 5 - Process Frames:    718.61s (avg: 2.840s/frame)
  Step 6 - Convert Arrays:    0.00s
  Step 7 - Forward Kinematics: 5.62s
  Step 8 - Save Data:         0.09s
Status: SUCCESS
==================================================

=== SUCCESS LOG - 2025-10-14 20:52:46 ===
Input file: /data/retarget/locomotion/raw/AMASS_SMPLXG/KIT/952/wipe_head_vertical01_stageii.npz
Output file: ../robot/ik_based/pkl/014885.pkl
Robot type: unitree_g1
Processing time: 486.31 seconds

STEP-BY-STEP TIMING:
  Step 1 - Load SMPLX:        38.07s
  Step 2 - Align FPS:         26.89s
  Step 3 - Init Retarget:     0.80s
  Step 4 - Init Visualization: 0.00s
  Step 5 - Process Frames:    408.92s (avg: 1.192s/frame)
  Step 6 - Convert Arrays:    0.03s
  Step 7 - Forward Kinematics: 6.22s
  Step 8 - Save Data:         0.06s
Status: SUCCESS
==================================================

=== SUCCESS LOG - 2025-10-14 20:52:55 ===
Input file: /data/retarget/locomotion/raw/AMASS_SMPLXG/KIT/952/wipe_head_dabbing02_stageii.npz
Output file: ../robot/ik_based/pkl/014883.pkl
Robot type: unitree_g1
Processing time: 533.90 seconds

STEP-BY-STEP TIMING:
  Step 1 - Load SMPLX:        38.70s
  Step 2 - Align FPS:         20.34s
  Step 3 - Init Retarget:     0.68s
  Step 4 - Init Visualization: 0.00s
  Step 5 - Process Frames:    464.09s (avg: 1.871s/frame)
  Step 6 - Convert Arrays:    0.00s
  Step 7 - Forward Kinematics: 5.55s
  Step 8 - Save Data:         0.10s
Status: SUCCESS
==================================================

=== SUCCESS LOG - 2025-10-14 20:53:02 ===
Input file: /data/retarget/locomotion/raw/AMASS_SMPLXG/KIT/955/wipe_back_dabbing01_stageii.npz
Output file: ../robot/ik_based/pkl/014899.pkl
Robot type: unitree_g1
Processing time: 262.81 seconds

STEP-BY-STEP TIMING:
  Step 1 - Load SMPLX:        39.67s
  Step 2 - Align FPS:         19.03s
  Step 3 - Init Retarget:     0.85s
  Step 4 - Init Visualization: 0.00s
  Step 5 - Process Frames:    193.41s (avg: 0.830s/frame)
  Step 6 - Convert Arrays:    0.02s
  Step 7 - Forward Kinematics: 5.56s
  Step 8 - Save Data:         0.07s
Status: SUCCESS
==================================================

=== SUCCESS LOG - 2025-10-14 20:53:24 ===
Input file: /data/retarget/locomotion/raw/AMASS_SMPLXG/KIT/955/wipe_arm_vertical01_stageii.npz
Output file: ../robot/ik_based/pkl/014895.pkl
Robot type: unitree_g1
Processing time: 351.48 seconds

STEP-BY-STEP TIMING:
  Step 1 - Load SMPLX:        32.35s
  Step 2 - Align FPS:         23.10s
  Step 3 - Init Retarget:     2.21s
  Step 4 - Init Visualization: 0.00s
  Step 5 - Process Frames:    281.65s (avg: 0.978s/frame)
  Step 6 - Convert Arrays:    0.00s
  Step 7 - Forward Kinematics: 6.33s
  Step 8 - Save Data:         0.07s
Status: SUCCESS
==================================================

=== SUCCESS LOG - 2025-10-14 20:55:10 ===
Input file: /data/retarget/locomotion/raw/AMASS_SMPLXG/KIT/955/wipe_arm_smallcircles02_stageii.npz
Output file: ../robot/ik_based/pkl/014894.pkl
Robot type: unitree_g1
Processing time: 458.05 seconds

STEP-BY-STEP TIMING:
  Step 1 - Load SMPLX:        32.67s
  Step 2 - Align FPS:         21.28s
  Step 3 - Init Retarget:     1.51s
  Step 4 - Init Visualization: 0.22s
  Step 5 - Process Frames:    392.49s (avg: 1.427s/frame)
  Step 6 - Convert Arrays:    0.02s
  Step 7 - Forward Kinematics: 5.13s
  Step 8 - Save Data:         0.11s
Status: SUCCESS
==================================================

=== SUCCESS LOG - 2025-10-14 20:55:11 ===
Input file: /data/retarget/locomotion/raw/AMASS_SMPLXG/KIT/955/wipe_arm_smallcircles01_stageii.npz
Output file: ../robot/ik_based/pkl/014893.pkl
Robot type: unitree_g1
Processing time: 458.92 seconds

STEP-BY-STEP TIMING:
  Step 1 - Load SMPLX:        32.07s
  Step 2 - Align FPS:         23.86s
  Step 3 - Init Retarget:     3.05s
  Step 4 - Init Visualization: 0.00s
  Step 5 - Process Frames:    390.13s (avg: 1.414s/frame)
  Step 6 - Convert Arrays:    0.02s
  Step 7 - Forward Kinematics: 5.35s
  Step 8 - Save Data:         0.07s
Status: SUCCESS
==================================================

=== SUCCESS LOG - 2025-10-14 20:55:52 ===
Input file: /data/retarget/locomotion/raw/AMASS_SMPLXG/KIT/955/wipe_back_smallcircles02_stageii.npz
Output file: ../robot/ik_based/pkl/014903.pkl
Robot type: unitree_g1
Processing time: 293.03 seconds

STEP-BY-STEP TIMING:
  Step 1 - Load SMPLX:        39.41s
  Step 2 - Align FPS:         21.12s
  Step 3 - Init Retarget:     0.89s
  Step 4 - Init Visualization: 0.00s
  Step 5 - Process Frames:    221.04s (avg: 0.804s/frame)
  Step 6 - Convert Arrays:    0.00s
  Step 7 - Forward Kinematics: 5.21s
  Step 8 - Save Data:         0.10s
Status: SUCCESS
==================================================

=== SUCCESS LOG - 2025-10-14 20:56:16 ===
Input file: /data/retarget/locomotion/raw/AMASS_SMPLXG/KIT/955/wipe_back_bigcircles02_stageii.npz
Output file: ../robot/ik_based/pkl/014897.pkl
Robot type: unitree_g1
Processing time: 506.60 seconds

STEP-BY-STEP TIMING:
  Step 1 - Load SMPLX:        37.47s
  Step 2 - Align FPS:         27.36s
  Step 3 - Init Retarget:     1.31s
  Step 4 - Init Visualization: 0.00s
  Step 5 - Process Frames:    429.18s (avg: 1.329s/frame)
  Step 6 - Convert Arrays:    0.01s
  Step 7 - Forward Kinematics: 5.23s
  Step 8 - Save Data:         0.18s
Status: SUCCESS
==================================================

=== SUCCESS LOG - 2025-10-14 20:56:17 ===
Input file: /data/retarget/locomotion/raw/AMASS_SMPLXG/KIT/955/wipe_arm_bigcircles01_stageii.npz
Output file: ../robot/ik_based/pkl/014891.pkl
Robot type: unitree_g1
Processing time: 557.00 seconds

STEP-BY-STEP TIMING:
  Step 1 - Load SMPLX:        36.22s
  Step 2 - Align FPS:         19.07s
  Step 3 - Init Retarget:     0.67s
  Step 4 - Init Visualization: 0.00s
  Step 5 - Process Frames:    490.70s (avg: 1.510s/frame)
  Step 6 - Convert Arrays:    0.00s
  Step 7 - Forward Kinematics: 4.80s
  Step 8 - Save Data:         0.12s
Status: SUCCESS
==================================================

=== SUCCESS LOG - 2025-10-14 20:56:56 ===
Input file: /data/retarget/locomotion/raw/AMASS_SMPLXG/KIT/955/wipe_back_dabbing03_stageii.npz
Output file: ../robot/ik_based/pkl/014901.pkl
Robot type: unitree_g1
Processing time: 445.62 seconds

STEP-BY-STEP TIMING:
  Step 1 - Load SMPLX:        39.77s
  Step 2 - Align FPS:         18.07s
  Step 3 - Init Retarget:     1.11s
  Step 4 - Init Visualization: 0.01s
  Step 5 - Process Frames:    379.32s (avg: 1.548s/frame)
  Step 6 - Convert Arrays:    0.00s
  Step 7 - Forward Kinematics: 4.70s
  Step 8 - Save Data:         0.07s
Status: SUCCESS
==================================================

=== SUCCESS LOG - 2025-10-14 20:57:36 ===
Input file: /data/retarget/locomotion/raw/AMASS_SMPLXG/KIT/955/wipe_back_smallcircles01_stageii.npz
Output file: ../robot/ik_based/pkl/014902.pkl
Robot type: unitree_g1
Processing time: 469.29 seconds

STEP-BY-STEP TIMING:
  Step 1 - Load SMPLX:        42.94s
  Step 2 - Align FPS:         20.37s
  Step 3 - Init Retarget:     1.06s
  Step 4 - Init Visualization: 0.01s
  Step 5 - Process Frames:    390.66s (avg: 1.385s/frame)
  Step 6 - Convert Arrays:    0.01s
  Step 7 - Forward Kinematics: 6.95s
  Step 8 - Save Data:         0.23s
Status: SUCCESS
==================================================

=== SUCCESS LOG - 2025-10-14 20:58:43 ===
Input file: /data/retarget/locomotion/raw/AMASS_SMPLXG/KIT/955/wipe_head_smallcircles02_stageii.npz
Output file: ../robot/ik_based/pkl/014909.pkl
Robot type: unitree_g1
Processing time: 367.61 seconds

STEP-BY-STEP TIMING:
  Step 1 - Load SMPLX:        33.80s
  Step 2 - Align FPS:         24.58s
  Step 3 - Init Retarget:     0.67s
  Step 4 - Init Visualization: 0.00s
  Step 5 - Process Frames:    295.17s (avg: 0.911s/frame)
  Step 6 - Convert Arrays:    0.01s
  Step 7 - Forward Kinematics: 6.54s
  Step 8 - Save Data:         0.38s
Status: SUCCESS
==================================================

=== SUCCESS LOG - 2025-10-14 20:59:08 ===
Input file: /data/retarget/locomotion/raw/AMASS_SMPLXG/KIT/955/wipe_head_vertical01_stageii.npz
Output file: ../robot/ik_based/pkl/014910.pkl
Robot type: unitree_g1
Processing time: 386.08 seconds

STEP-BY-STEP TIMING:
  Step 1 - Load SMPLX:        34.75s
  Step 2 - Align FPS:         19.93s
  Step 3 - Init Retarget:     1.14s
  Step 4 - Init Visualization: 0.01s
  Step 5 - Process Frames:    317.90s (avg: 1.325s/frame)
  Step 6 - Convert Arrays:    0.01s
  Step 7 - Forward Kinematics: 7.06s
  Step 8 - Save Data:         0.12s
Status: SUCCESS
==================================================

=== SUCCESS LOG - 2025-10-14 21:00:50 ===
Input file: /data/retarget/locomotion/raw/AMASS_SMPLXG/KIT/952/wipe_leg_biglcircles01_stageii.npz
Output file: ../robot/ik_based/pkl/014886.pkl
Robot type: unitree_g1
Processing time: 965.75 seconds

STEP-BY-STEP TIMING:
  Step 1 - Load SMPLX:        40.08s
  Step 2 - Align FPS:         27.23s
  Step 3 - Init Retarget:     0.74s
  Step 4 - Init Visualization: 0.00s
  Step 5 - Process Frames:    881.27s (avg: 2.225s/frame)
  Step 6 - Convert Arrays:    0.01s
  Step 7 - Forward Kinematics: 8.39s
  Step 8 - Save Data:         0.49s
Status: SUCCESS
==================================================

=== SUCCESS LOG - 2025-10-14 21:02:54 ===
Input file: /data/retarget/locomotion/raw/AMASS_SMPLXG/KIT/955/wipe_leg_dabbing03_stageii.npz
Output file: ../robot/ik_based/pkl/014914.pkl
Robot type: unitree_g1
Processing time: 568.20 seconds

STEP-BY-STEP TIMING:
  Step 1 - Load SMPLX:        44.08s
  Step 2 - Align FPS:         22.34s
  Step 3 - Init Retarget:     1.05s
  Step 4 - Init Visualization: 0.00s
  Step 5 - Process Frames:    486.91s (avg: 2.004s/frame)
  Step 6 - Convert Arrays:    0.01s
  Step 7 - Forward Kinematics: 7.31s
  Step 8 - Save Data:         0.17s
Status: SUCCESS
==================================================

=== SUCCESS LOG - 2025-10-14 21:03:36 ===
Input file: /data/retarget/locomotion/raw/AMASS_SMPLXG/KIT/952/wipe_leg_smallcircles02_stageii.npz
Output file: ../robot/ik_based/pkl/014888.pkl
Robot type: unitree_g1
Processing time: 1092.41 seconds

STEP-BY-STEP TIMING:
  Step 1 - Load SMPLX:        42.50s
  Step 2 - Align FPS:         23.58s
  Step 3 - Init Retarget:     0.90s
  Step 4 - Init Visualization: 0.00s
  Step 5 - Process Frames:    1011.67s (avg: 3.161s/frame)
  Step 6 - Convert Arrays:    0.00s
  Step 7 - Forward Kinematics: 8.64s
  Step 8 - Save Data:         0.14s
Status: SUCCESS
==================================================

=== ERROR LOG - 2025-10-14 21:03:37 ===
Input file: /data/retarget/locomotion/raw/AMASS_SMPLXG/KIT/965/male_stagei.npz
Output file: ../robot/ik_based/pkl/014926.pkl
Robot type: unitree_g1
Processing time: 41.42 seconds
Error message: 'pose_body is not a file in the archive'
Error type: KeyError
==================================================

=== SUCCESS LOG - 2025-10-14 21:04:14 ===
Input file: /data/retarget/locomotion/raw/AMASS_SMPLXG/KIT/955/wipe_back_dabbing02_stageii.npz
Output file: ../robot/ik_based/pkl/014900.pkl
Robot type: unitree_g1
Processing time: 905.50 seconds

STEP-BY-STEP TIMING:
  Step 1 - Load SMPLX:        38.14s
  Step 2 - Align FPS:         16.88s
  Step 3 - Init Retarget:     0.80s
  Step 4 - Init Visualization: 0.01s
  Step 5 - Process Frames:    840.88s (avg: 3.149s/frame)
  Step 6 - Convert Arrays:    0.00s
  Step 7 - Forward Kinematics: 4.91s
  Step 8 - Save Data:         0.08s
Status: SUCCESS
==================================================
