
=== ERROR LOG - 2025-10-14 19:57:53 ===
Input file: /data/retarget/locomotion/raw/AMASS_SMPLXG/Eyes_Japan_Dataset/aita/male_stagei.npz
Output file: ../robot/ik_based/pkl/008280.pkl
Robot type: unitree_g1
Processing time: 0.83 seconds
Error message: 'pose_body is not a file in the archive'
Error type: KeyError
==================================================

=== ERROR LOG - 2025-10-14 19:57:53 ===
Input file: /data/retarget/locomotion/raw/AMASS_SMPLXG/EKUT/234/male_stagei.npz
Output file: ../robot/ik_based/pkl/008011.pkl
Robot type: unitree_g1
Processing time: 1.06 seconds
Error message: 'pose_body is not a file in the archive'
Error type: KeyError
==================================================

=== ERROR LOG - 2025-10-14 19:57:53 ===
Input file: /data/retarget/locomotion/raw/AMASS_SMPLXG/EKUT/300/male_stagei.npz
Output file: ../robot/ik_based/pkl/008219.pkl
Robot type: unitree_g1
Processing time: 0.84 seconds
Error message: 'pose_body is not a file in the archive'
Error type: KeyError
==================================================

=== ERROR LOG - 2025-10-14 19:57:54 ===
Input file: /data/retarget/locomotion/raw/AMASS_SMPLXG/EKUT/265/male_stagei.npz
Output file: ../robot/ik_based/pkl/008083.pkl
Robot type: unitree_g1
Processing time: 0.94 seconds
Error message: 'pose_body is not a file in the archive'
Error type: KeyError
==================================================

=== ERROR LOG - 2025-10-14 19:57:54 ===
Input file: /data/retarget/locomotion/raw/AMASS_SMPLXG/EKUT/265/MTR03_stageii.npz
Output file: ../robot/ik_based/pkl/008024.pkl
Robot type: unitree_g1
Processing time: 1.64 seconds

STEP-BY-STEP TIMING (FAILED):
  Load Smplx: 1.63s
Error message: need at least one array to stack
Error type: ValueError
==================================================

=== ERROR LOG - 2025-10-14 19:57:55 ===
Input file: /data/retarget/locomotion/raw/AMASS_SMPLXG/Eyes_Japan_Dataset/frederic/male_stagei.npz
Output file: ../robot/ik_based/pkl/008335.pkl
Robot type: unitree_g1
Processing time: 0.93 seconds
Error message: 'pose_body is not a file in the archive'
Error type: KeyError
==================================================

=== ERROR LOG - 2025-10-14 19:57:55 ===
Input file: /data/retarget/locomotion/raw/AMASS_SMPLXG/Eyes_Japan_Dataset/hamada/male_stagei.npz
Output file: ../robot/ik_based/pkl/008413.pkl
Robot type: unitree_g1
Processing time: 0.92 seconds
Error message: 'pose_body is not a file in the archive'
Error type: KeyError
==================================================

=== ERROR LOG - 2025-10-14 19:57:55 ===
Input file: /data/retarget/locomotion/raw/AMASS_SMPLXG/Eyes_Japan_Dataset/kaiwa/female_stagei.npz
Output file: ../robot/ik_based/pkl/008538.pkl
Robot type: unitree_g1
Processing time: 1.14 seconds
Error message: 'pose_body is not a file in the archive'
Error type: KeyError
==================================================

=== ERROR LOG - 2025-10-14 19:57:55 ===
Input file: /data/retarget/locomotion/raw/AMASS_SMPLXG/Eyes_Japan_Dataset/ichige/male_stagei.npz
Output file: ../robot/ik_based/pkl/008509.pkl
Robot type: unitree_g1
Processing time: 1.15 seconds
Error message: 'pose_body is not a file in the archive'
Error type: KeyError
==================================================

=== SUCCESS LOG - 2025-10-14 20:01:19 ===
Input file: /data/retarget/locomotion/raw/AMASS_SMPLXG/Eyes_Japan_Dataset/kaiwa/gesture_etc-31-ok-kaiwa_stageii.npz
Output file: ../robot/ik_based/pkl/008553.pkl
Robot type: unitree_g1
Processing time: 203.94 seconds

STEP-BY-STEP TIMING:
  Step 1 - Load SMPLX:        5.99s
  Step 2 - Align FPS:         38.34s
  Step 3 - Init Retarget:     2.25s
  Step 4 - Init Visualization: 0.00s
  Step 5 - Process Frames:    154.18s (avg: 0.171s/frame)
  Step 6 - Convert Arrays:    0.00s
  Step 7 - Forward Kinematics: 2.10s
  Step 8 - Save Data:         0.02s
Status: SUCCESS
==================================================

=== SUCCESS LOG - 2025-10-14 20:01:27 ===
Input file: /data/retarget/locomotion/raw/AMASS_SMPLXG/Eyes_Japan_Dataset/kaiwa/gesture_etc-29-pantomime-kaiwa_stageii.npz
Output file: ../robot/ik_based/pkl/008551.pkl
Robot type: unitree_g1
Processing time: 211.70 seconds

STEP-BY-STEP TIMING:
  Step 1 - Load SMPLX:        6.39s
  Step 2 - Align FPS:         40.46s
  Step 3 - Init Retarget:     0.57s
  Step 4 - Init Visualization: 0.00s
  Step 5 - Process Frames:    162.66s (avg: 0.181s/frame)
  Step 6 - Convert Arrays:    0.00s
  Step 7 - Forward Kinematics: 0.84s
  Step 8 - Save Data:         0.02s
Status: SUCCESS
==================================================

=== SUCCESS LOG - 2025-10-14 20:01:28 ===
Input file: /data/retarget/locomotion/raw/AMASS_SMPLXG/Eyes_Japan_Dataset/kaiwa/gesture_etc-25-magic-kaiwa_stageii.npz
Output file: ../robot/ik_based/pkl/008550.pkl
Robot type: unitree_g1
Processing time: 213.25 seconds

STEP-BY-STEP TIMING:
  Step 1 - Load SMPLX:        6.39s
  Step 2 - Align FPS:         39.17s
  Step 3 - Init Retarget:     1.73s
  Step 4 - Init Visualization: 0.00s
  Step 5 - Process Frames:    165.05s (avg: 0.183s/frame)
  Step 6 - Convert Arrays:    0.00s
  Step 7 - Forward Kinematics: 0.56s
  Step 8 - Save Data:         0.01s
Status: SUCCESS
==================================================

=== SUCCESS LOG - 2025-10-14 20:01:29 ===
Input file: /data/retarget/locomotion/raw/AMASS_SMPLXG/Eyes_Japan_Dataset/kaiwa/gesture_etc-30-fxxk-kaiwa_stageii.npz
Output file: ../robot/ik_based/pkl/008552.pkl
Robot type: unitree_g1
Processing time: 213.65 seconds

STEP-BY-STEP TIMING:
  Step 1 - Load SMPLX:        6.32s
  Step 2 - Align FPS:         36.89s
  Step 3 - Init Retarget:     3.39s
  Step 4 - Init Visualization: 0.00s
  Step 5 - Process Frames:    166.02s (avg: 0.184s/frame)
  Step 6 - Convert Arrays:    0.00s
  Step 7 - Forward Kinematics: 0.31s
  Step 8 - Save Data:         0.17s
Status: SUCCESS
==================================================

=== SUCCESS LOG - 2025-10-14 20:03:25 ===
Input file: /data/retarget/locomotion/raw/AMASS_SMPLXG/Eyes_Japan_Dataset/kaiwa/gesture_etc-24-matrix-kaiwa_stageii.npz
Output file: ../robot/ik_based/pkl/008549.pkl
Robot type: unitree_g1
Processing time: 331.01 seconds

STEP-BY-STEP TIMING:
  Step 1 - Load SMPLX:        2.77s
  Step 2 - Align FPS:         37.93s
  Step 3 - Init Retarget:     1.14s
  Step 4 - Init Visualization: 0.00s
  Step 5 - Process Frames:    286.93s (avg: 0.319s/frame)
  Step 6 - Convert Arrays:    0.00s
  Step 7 - Forward Kinematics: 1.18s
  Step 8 - Save Data:         0.02s
Status: SUCCESS
==================================================

=== SUCCESS LOG - 2025-10-14 20:05:44 ===
Input file: /data/retarget/locomotion/raw/AMASS_SMPLXG/Eyes_Japan_Dataset/kaiwa/gesture_etc-34-peace-kaiwa_stageii.npz
Output file: ../robot/ik_based/pkl/008556.pkl
Robot type: unitree_g1
Processing time: 256.33 seconds

STEP-BY-STEP TIMING:
  Step 1 - Load SMPLX:        8.50s
  Step 2 - Align FPS:         32.23s
  Step 3 - Init Retarget:     0.66s
  Step 4 - Init Visualization: 0.01s
  Step 5 - Process Frames:    212.76s (avg: 0.236s/frame)
  Step 6 - Convert Arrays:    0.01s
  Step 7 - Forward Kinematics: 1.10s
  Step 8 - Save Data:         0.02s
Status: SUCCESS
==================================================

=== SUCCESS LOG - 2025-10-14 20:05:54 ===
Input file: /data/retarget/locomotion/raw/AMASS_SMPLXG/Eyes_Japan_Dataset/kaiwa/gesture_etc-33-watch_here-kaiwa_stageii.npz
Output file: ../robot/ik_based/pkl/008555.pkl
Robot type: unitree_g1
Processing time: 274.23 seconds

STEP-BY-STEP TIMING:
  Step 1 - Load SMPLX:        10.04s
  Step 2 - Align FPS:         29.43s
  Step 3 - Init Retarget:     1.17s
  Step 4 - Init Visualization: 0.00s
  Step 5 - Process Frames:    232.55s (avg: 0.258s/frame)
  Step 6 - Convert Arrays:    0.01s
  Step 7 - Forward Kinematics: 0.73s
  Step 8 - Save Data:         0.02s
Status: SUCCESS
==================================================

=== SUCCESS LOG - 2025-10-14 20:06:20 ===
Input file: /data/retarget/locomotion/raw/AMASS_SMPLXG/Eyes_Japan_Dataset/kaiwa/gesture_etc-37-gay-kaiwa_stageii.npz
Output file: ../robot/ik_based/pkl/008558.pkl
Robot type: unitree_g1
Processing time: 289.80 seconds

STEP-BY-STEP TIMING:
  Step 1 - Load SMPLX:        12.18s
  Step 2 - Align FPS:         28.37s
  Step 3 - Init Retarget:     0.92s
  Step 4 - Init Visualization: 0.00s
  Step 5 - Process Frames:    243.56s (avg: 0.271s/frame)
  Step 6 - Convert Arrays:    0.01s
  Step 7 - Forward Kinematics: 3.44s
  Step 8 - Save Data:         0.02s
Status: SUCCESS
==================================================

=== SUCCESS LOG - 2025-10-14 20:06:43 ===
Input file: /data/retarget/locomotion/raw/AMASS_SMPLXG/Eyes_Japan_Dataset/kaiwa/gesture_etc-38-hand_language-kaiwa_stageii.npz
Output file: ../robot/ik_based/pkl/008559.pkl
Robot type: unitree_g1
Processing time: 197.47 seconds

STEP-BY-STEP TIMING:
  Step 1 - Load SMPLX:        9.60s
  Step 2 - Align FPS:         16.34s
  Step 3 - Init Retarget:     0.51s
  Step 4 - Init Visualization: 0.00s
  Step 5 - Process Frames:    169.21s (avg: 0.188s/frame)
  Step 6 - Convert Arrays:    0.01s
  Step 7 - Forward Kinematics: 0.98s
  Step 8 - Save Data:         0.03s
Status: SUCCESS
==================================================

=== SUCCESS LOG - 2025-10-14 20:06:53 ===
Input file: /data/retarget/locomotion/raw/AMASS_SMPLXG/Eyes_Japan_Dataset/kaiwa/gesture_etc-35-west_side-kaiwa_stageii.npz
Output file: ../robot/ik_based/pkl/008557.pkl
Robot type: unitree_g1
Processing time: 324.18 seconds

STEP-BY-STEP TIMING:
  Step 1 - Load SMPLX:        13.25s
  Step 2 - Align FPS:         30.49s
  Step 3 - Init Retarget:     0.56s
  Step 4 - Init Visualization: 0.00s
  Step 5 - Process Frames:    278.30s (avg: 0.309s/frame)
  Step 6 - Convert Arrays:    0.00s
  Step 7 - Forward Kinematics: 0.80s
  Step 8 - Save Data:         0.02s
Status: SUCCESS
==================================================

=== SUCCESS LOG - 2025-10-14 20:09:08 ===
Input file: /data/retarget/locomotion/raw/AMASS_SMPLXG/Eyes_Japan_Dataset/kaiwa/gesture_etc-42-hung_over-kaiwa_stageii.npz
Output file: ../robot/ik_based/pkl/008563.pkl
Robot type: unitree_g1
Processing time: 202.91 seconds

STEP-BY-STEP TIMING:
  Step 1 - Load SMPLX:        11.54s
  Step 2 - Align FPS:         22.53s
  Step 3 - Init Retarget:     0.42s
  Step 4 - Init Visualization: 0.00s
  Step 5 - Process Frames:    165.96s (avg: 0.184s/frame)
  Step 6 - Convert Arrays:    0.01s
  Step 7 - Forward Kinematics: 1.28s
  Step 8 - Save Data:         0.03s
Status: SUCCESS
==================================================

=== SUCCESS LOG - 2025-10-14 20:09:35 ===
Input file: /data/retarget/locomotion/raw/AMASS_SMPLXG/Eyes_Japan_Dataset/kaiwa/gesture_etc-43-brush_teeth-kaiwa_stageii.npz
Output file: ../robot/ik_based/pkl/008564.pkl
Robot type: unitree_g1
Processing time: 219.44 seconds

STEP-BY-STEP TIMING:
  Step 1 - Load SMPLX:        13.29s
  Step 2 - Align FPS:         18.08s
  Step 3 - Init Retarget:     0.49s
  Step 4 - Init Visualization: 0.00s
  Step 5 - Process Frames:    184.88s (avg: 0.205s/frame)
  Step 6 - Convert Arrays:    0.00s
  Step 7 - Forward Kinematics: 0.98s
  Step 8 - Save Data:         0.02s
Status: SUCCESS
==================================================

=== SUCCESS LOG - 2025-10-14 20:10:21 ===
Input file: /data/retarget/locomotion/raw/AMASS_SMPLXG/Eyes_Japan_Dataset/kaiwa/gesture_etc-47-big_drum-kaiwa_stageii.npz
Output file: ../robot/ik_based/pkl/008567.pkl
Robot type: unitree_g1
Processing time: 206.63 seconds

STEP-BY-STEP TIMING:
  Step 1 - Load SMPLX:        15.04s
  Step 2 - Align FPS:         21.85s
  Step 3 - Init Retarget:     0.46s
  Step 4 - Init Visualization: 0.00s
  Step 5 - Process Frames:    167.09s (avg: 0.186s/frame)
  Step 6 - Convert Arrays:    0.01s
  Step 7 - Forward Kinematics: 1.08s
  Step 8 - Save Data:         0.03s
Status: SUCCESS
==================================================

=== SUCCESS LOG - 2025-10-14 20:10:29 ===
Input file: /data/retarget/locomotion/raw/AMASS_SMPLXG/Eyes_Japan_Dataset/kaiwa/gesture_etc-46-vomit_of_blood-kaiwa_stageii.npz
Output file: ../robot/ik_based/pkl/008566.pkl
Robot type: unitree_g1
Processing time: 224.59 seconds

STEP-BY-STEP TIMING:
  Step 1 - Load SMPLX:        10.57s
  Step 2 - Align FPS:         19.59s
  Step 3 - Init Retarget:     0.78s
  Step 4 - Init Visualization: 0.00s
  Step 5 - Process Frames:    191.73s (avg: 0.213s/frame)
  Step 6 - Convert Arrays:    0.00s
  Step 7 - Forward Kinematics: 0.98s
  Step 8 - Save Data:         0.02s
Status: SUCCESS
==================================================

=== SUCCESS LOG - 2025-10-14 20:11:05 ===
Input file: /data/retarget/locomotion/raw/AMASS_SMPLXG/Eyes_Japan_Dataset/kaiwa/gesture_etc-45-feel_dizzy_-kaiwa_stageii.npz
Output file: ../robot/ik_based/pkl/008565.pkl
Robot type: unitree_g1
Processing time: 284.81 seconds

STEP-BY-STEP TIMING:
  Step 1 - Load SMPLX:        11.24s
  Step 2 - Align FPS:         16.87s
  Step 3 - Init Retarget:     0.42s
  Step 4 - Init Visualization: 0.00s
  Step 5 - Process Frames:    254.14s (avg: 0.282s/frame)
  Step 6 - Convert Arrays:    0.00s
  Step 7 - Forward Kinematics: 1.24s
  Step 8 - Save Data:         0.01s
Status: SUCCESS
==================================================

=== SUCCESS LOG - 2025-10-14 20:13:01 ===
Input file: /data/retarget/locomotion/raw/AMASS_SMPLXG/Eyes_Japan_Dataset/kaiwa/gesture_etc-49-taiko_under-kaiwa_stageii.npz
Output file: ../robot/ik_based/pkl/008569.pkl
Robot type: unitree_g1
Processing time: 232.34 seconds

STEP-BY-STEP TIMING:
  Step 1 - Load SMPLX:        9.65s
  Step 2 - Align FPS:         17.76s
  Step 3 - Init Retarget:     0.44s
  Step 4 - Init Visualization: 0.00s
  Step 5 - Process Frames:    202.50s (avg: 0.225s/frame)
  Step 6 - Convert Arrays:    0.01s
  Step 7 - Forward Kinematics: 1.19s
  Step 8 - Save Data:         0.03s
Status: SUCCESS
==================================================

=== SUCCESS LOG - 2025-10-14 20:13:02 ===
Input file: /data/retarget/locomotion/raw/AMASS_SMPLXG/Eyes_Japan_Dataset/kaiwa/greeting-01-hello-kaiwa_stageii.npz
Output file: ../robot/ik_based/pkl/008570.pkl
Robot type: unitree_g1
Processing time: 205.65 seconds

STEP-BY-STEP TIMING:
  Step 1 - Load SMPLX:        10.17s
  Step 2 - Align FPS:         18.30s
  Step 3 - Init Retarget:     0.48s
  Step 4 - Init Visualization: 0.00s
  Step 5 - Process Frames:    174.66s (avg: 0.194s/frame)
  Step 6 - Convert Arrays:    0.00s
  Step 7 - Forward Kinematics: 0.98s
  Step 8 - Save Data:         0.03s
Status: SUCCESS
==================================================

=== SUCCESS LOG - 2025-10-14 20:14:06 ===
Input file: /data/retarget/locomotion/raw/AMASS_SMPLXG/Eyes_Japan_Dataset/kaiwa/greeting-03-election-kaiwa_stageii.npz
Output file: ../robot/ik_based/pkl/008572.pkl
Robot type: unitree_g1
Processing time: 224.20 seconds

STEP-BY-STEP TIMING:
  Step 1 - Load SMPLX:        9.68s
  Step 2 - Align FPS:         21.18s
  Step 3 - Init Retarget:     0.44s
  Step 4 - Init Visualization: 0.00s
  Step 5 - Process Frames:    190.36s (avg: 0.212s/frame)
  Step 6 - Convert Arrays:    0.00s
  Step 7 - Forward Kinematics: 1.37s
  Step 8 - Save Data:         0.02s
Status: SUCCESS
==================================================

=== SUCCESS LOG - 2025-10-14 20:14:11 ===
Input file: /data/retarget/locomotion/raw/AMASS_SMPLXG/Eyes_Japan_Dataset/kaiwa/greeting-04-salute_(head)-kaiwa_stageii.npz
Output file: ../robot/ik_based/pkl/008573.pkl
Robot type: unitree_g1
Processing time: 220.92 seconds

STEP-BY-STEP TIMING:
  Step 1 - Load SMPLX:        12.54s
  Step 2 - Align FPS:         18.94s
  Step 3 - Init Retarget:     0.34s
  Step 4 - Init Visualization: 0.00s
  Step 5 - Process Frames:    186.91s (avg: 0.208s/frame)
  Step 6 - Convert Arrays:    0.01s
  Step 7 - Forward Kinematics: 1.08s
  Step 8 - Save Data:         0.02s
Status: SUCCESS
==================================================

=== SUCCESS LOG - 2025-10-14 20:14:36 ===
Input file: /data/retarget/locomotion/raw/AMASS_SMPLXG/Eyes_Japan_Dataset/kaiwa/greeting-05-salute_(chest)-kaiwa_stageii.npz
Output file: ../robot/ik_based/pkl/008574.pkl
Robot type: unitree_g1
Processing time: 210.14 seconds

STEP-BY-STEP TIMING:
  Step 1 - Load SMPLX:        9.74s
  Step 2 - Align FPS:         16.27s
  Step 3 - Init Retarget:     0.47s
  Step 4 - Init Visualization: 0.00s
  Step 5 - Process Frames:    180.82s (avg: 0.201s/frame)
  Step 6 - Convert Arrays:    0.00s
  Step 7 - Forward Kinematics: 2.17s
  Step 8 - Save Data:         0.01s
Status: SUCCESS
==================================================

=== SUCCESS LOG - 2025-10-14 20:16:20 ===
Input file: /data/retarget/locomotion/raw/AMASS_SMPLXG/Eyes_Japan_Dataset/kaiwa/greeting-09-certificate-kaiwa_stageii.npz
Output file: ../robot/ik_based/pkl/008577.pkl
Robot type: unitree_g1
Processing time: 197.96 seconds

STEP-BY-STEP TIMING:
  Step 1 - Load SMPLX:        8.54s
  Step 2 - Align FPS:         19.67s
  Step 3 - Init Retarget:     0.50s
  Step 4 - Init Visualization: 0.00s
  Step 5 - Process Frames:    167.17s (avg: 0.186s/frame)
  Step 6 - Convert Arrays:    0.01s
  Step 7 - Forward Kinematics: 1.05s
  Step 8 - Save Data:         0.03s
Status: SUCCESS
==================================================

=== SUCCESS LOG - 2025-10-14 20:16:39 ===
Input file: /data/retarget/locomotion/raw/AMASS_SMPLXG/Eyes_Japan_Dataset/kaiwa/jump-01-normal-kaiwa_stageii.npz
Output file: ../robot/ik_based/pkl/008578.pkl
Robot type: unitree_g1
Processing time: 216.11 seconds

STEP-BY-STEP TIMING:
  Step 1 - Load SMPLX:        8.61s
  Step 2 - Align FPS:         21.22s
  Step 3 - Init Retarget:     0.42s
  Step 4 - Init Visualization: 0.00s
  Step 5 - Process Frames:    181.45s (avg: 0.202s/frame)
  Step 6 - Convert Arrays:    0.02s
  Step 7 - Forward Kinematics: 2.56s
  Step 8 - Save Data:         0.03s
Status: SUCCESS
==================================================

=== SUCCESS LOG - 2025-10-14 20:17:51 ===
Input file: /data/retarget/locomotion/raw/AMASS_SMPLXG/Eyes_Japan_Dataset/kaiwa/jump-02-leap-kaiwa_stageii.npz
Output file: ../robot/ik_based/pkl/008579.pkl
Robot type: unitree_g1
Processing time: 223.81 seconds

STEP-BY-STEP TIMING:
  Step 1 - Load SMPLX:        9.20s
  Step 2 - Align FPS:         19.52s
  Step 3 - Init Retarget:     0.35s
  Step 4 - Init Visualization: 0.00s
  Step 5 - Process Frames:    192.76s (avg: 0.214s/frame)
  Step 6 - Convert Arrays:    0.01s
  Step 7 - Forward Kinematics: 1.00s
  Step 8 - Save Data:         0.02s
Status: SUCCESS
==================================================

=== SUCCESS LOG - 2025-10-14 20:18:22 ===
Input file: /data/retarget/locomotion/raw/AMASS_SMPLXG/Eyes_Japan_Dataset/kaiwa/jump-03-vertical-kaiwa_stageii.npz
Output file: ../robot/ik_based/pkl/008580.pkl
Robot type: unitree_g1
Processing time: 250.31 seconds

STEP-BY-STEP TIMING:
  Step 1 - Load SMPLX:        12.73s
  Step 2 - Align FPS:         17.09s
  Step 3 - Init Retarget:     0.36s
  Step 4 - Init Visualization: 0.00s
  Step 5 - Process Frames:    218.07s (avg: 0.242s/frame)
  Step 6 - Convert Arrays:    0.01s
  Step 7 - Forward Kinematics: 1.01s
  Step 8 - Save Data:         0.04s
Status: SUCCESS
==================================================

=== SUCCESS LOG - 2025-10-14 20:18:24 ===
Input file: /data/retarget/locomotion/raw/AMASS_SMPLXG/Eyes_Japan_Dataset/kaiwa/jump-04-horizontal-kaiwa_stageii.npz
Output file: ../robot/ik_based/pkl/008581.pkl
Robot type: unitree_g1
Processing time: 226.77 seconds

STEP-BY-STEP TIMING:
  Step 1 - Load SMPLX:        10.88s
  Step 2 - Align FPS:         13.54s
  Step 3 - Init Retarget:     0.38s
  Step 4 - Init Visualization: 0.00s
  Step 5 - Process Frames:    199.89s (avg: 0.222s/frame)
  Step 6 - Convert Arrays:    0.01s
  Step 7 - Forward Kinematics: 1.05s
  Step 8 - Save Data:         0.03s
Status: SUCCESS
==================================================

=== SUCCESS LOG - 2025-10-14 20:20:08 ===
Input file: /data/retarget/locomotion/raw/AMASS_SMPLXG/Eyes_Japan_Dataset/kaiwa/pain-01-headache-kaiwa_stageii.npz
Output file: ../robot/ik_based/pkl/008584.pkl
Robot type: unitree_g1
Processing time: 208.20 seconds

STEP-BY-STEP TIMING:
  Step 1 - Load SMPLX:        10.24s
  Step 2 - Align FPS:         18.81s
  Step 3 - Init Retarget:     0.37s
  Step 4 - Init Visualization: 0.00s
  Step 5 - Process Frames:    176.64s (avg: 0.196s/frame)
  Step 6 - Convert Arrays:    0.00s
  Step 7 - Forward Kinematics: 0.99s
  Step 8 - Save Data:         0.02s
Status: SUCCESS
==================================================

=== SUCCESS LOG - 2025-10-14 20:20:26 ===
Input file: /data/retarget/locomotion/raw/AMASS_SMPLXG/Eyes_Japan_Dataset/kaiwa/jump-13-matrix-kaiwa_stageii.npz
Output file: ../robot/ik_based/pkl/008583.pkl
Robot type: unitree_g1
Processing time: 244.35 seconds

STEP-BY-STEP TIMING:
  Step 1 - Load SMPLX:        10.16s
  Step 2 - Align FPS:         14.98s
  Step 3 - Init Retarget:     0.39s
  Step 4 - Init Visualization: 0.00s
  Step 5 - Process Frames:    215.26s (avg: 0.239s/frame)
  Step 6 - Convert Arrays:    0.00s
  Step 7 - Forward Kinematics: 1.40s
  Step 8 - Save Data:         0.05s
Status: SUCCESS
==================================================

=== SUCCESS LOG - 2025-10-14 20:22:22 ===
Input file: /data/retarget/locomotion/raw/AMASS_SMPLXG/Eyes_Japan_Dataset/kaiwa/pose-01-normal-kaiwa_stageii.npz
Output file: ../robot/ik_based/pkl/008587.pkl
Robot type: unitree_g1
Processing time: 238.64 seconds

STEP-BY-STEP TIMING:
  Step 1 - Load SMPLX:        8.30s
  Step 2 - Align FPS:         22.33s
  Step 3 - Init Retarget:     0.72s
  Step 4 - Init Visualization: 0.00s
  Step 5 - Process Frames:    205.30s (avg: 0.228s/frame)
  Step 6 - Convert Arrays:    0.00s
  Step 7 - Forward Kinematics: 0.91s
  Step 8 - Save Data:         0.02s
Status: SUCCESS
==================================================

=== SUCCESS LOG - 2025-10-14 20:22:28 ===
Input file: /data/retarget/locomotion/raw/AMASS_SMPLXG/Eyes_Japan_Dataset/kaiwa/pain-07-arthritic-kaiwa_stageii.npz
Output file: ../robot/ik_based/pkl/008586.pkl
Robot type: unitree_g1
Processing time: 276.80 seconds

STEP-BY-STEP TIMING:
  Step 1 - Load SMPLX:        9.74s
  Step 2 - Align FPS:         17.20s
  Step 3 - Init Retarget:     0.34s
  Step 4 - Init Visualization: 0.00s
  Step 5 - Process Frames:    248.18s (avg: 0.276s/frame)
  Step 6 - Convert Arrays:    0.00s
  Step 7 - Forward Kinematics: 0.71s
  Step 8 - Save Data:         0.02s
Status: SUCCESS
==================================================

=== SUCCESS LOG - 2025-10-14 20:22:51 ===
Input file: /data/retarget/locomotion/raw/AMASS_SMPLXG/Eyes_Japan_Dataset/kaiwa/pose-02-rest-kaiwa_stageii.npz
Output file: ../robot/ik_based/pkl/008588.pkl
Robot type: unitree_g1
Processing time: 266.56 seconds

STEP-BY-STEP TIMING:
  Step 1 - Load SMPLX:        8.20s
  Step 2 - Align FPS:         22.84s
  Step 3 - Init Retarget:     0.40s
  Step 4 - Init Visualization: 0.00s
  Step 5 - Process Frames:    228.47s (avg: 0.254s/frame)
  Step 6 - Convert Arrays:    0.01s
  Step 7 - Forward Kinematics: 2.88s
  Step 8 - Save Data:         0.03s
Status: SUCCESS
==================================================

=== SUCCESS LOG - 2025-10-14 20:24:03 ===
Input file: /data/retarget/locomotion/raw/AMASS_SMPLXG/Eyes_Japan_Dataset/kaiwa/pose-05-cross_leg-kaiwa_stageii.npz
Output file: ../robot/ik_based/pkl/008591.pkl
Robot type: unitree_g1
Processing time: 216.63 seconds

STEP-BY-STEP TIMING:
  Step 1 - Load SMPLX:        10.16s
  Step 2 - Align FPS:         13.53s
  Step 3 - Init Retarget:     0.37s
  Step 4 - Init Visualization: 0.00s
  Step 5 - Process Frames:    190.43s (avg: 0.212s/frame)
  Step 6 - Convert Arrays:    0.00s
  Step 7 - Forward Kinematics: 1.08s
  Step 8 - Save Data:         0.02s
Status: SUCCESS
==================================================

=== SUCCESS LOG - 2025-10-14 20:24:49 ===
Input file: /data/retarget/locomotion/raw/AMASS_SMPLXG/Eyes_Japan_Dataset/kaiwa/pose-04-drank-kaiwa_stageii.npz
Output file: ../robot/ik_based/pkl/008590.pkl
Robot type: unitree_g1
Processing time: 279.55 seconds

STEP-BY-STEP TIMING:
  Step 1 - Load SMPLX:        9.75s
  Step 2 - Align FPS:         18.26s
  Step 3 - Init Retarget:     1.01s
  Step 4 - Init Visualization: 0.00s
  Step 5 - Process Frames:    248.50s (avg: 0.276s/frame)
  Step 6 - Convert Arrays:    0.00s
  Step 7 - Forward Kinematics: 1.13s
  Step 8 - Save Data:         0.02s
Status: SUCCESS
==================================================

=== SUCCESS LOG - 2025-10-14 20:25:46 ===
Input file: /data/retarget/locomotion/raw/AMASS_SMPLXG/Eyes_Japan_Dataset/kaiwa/pose-09-pray_buddhism-kaiwa_stageii.npz
Output file: ../robot/ik_based/pkl/008594.pkl
Robot type: unitree_g1
Processing time: 203.92 seconds

STEP-BY-STEP TIMING:
  Step 1 - Load SMPLX:        9.40s
  Step 2 - Align FPS:         17.86s
  Step 3 - Init Retarget:     0.65s
  Step 4 - Init Visualization: 0.01s
  Step 5 - Process Frames:    173.49s (avg: 0.211s/frame)
  Step 6 - Convert Arrays:    0.00s
  Step 7 - Forward Kinematics: 1.63s
  Step 8 - Save Data:         0.02s
Status: SUCCESS
==================================================

=== SUCCESS LOG - 2025-10-14 20:26:48 ===
Input file: /data/retarget/locomotion/raw/AMASS_SMPLXG/Eyes_Japan_Dataset/kaiwa/pose-10-recall_blackmagic-kaiwa_stageii.npz
Output file: ../robot/ik_based/pkl/008595.pkl
Robot type: unitree_g1
Processing time: 258.82 seconds

STEP-BY-STEP TIMING:
  Step 1 - Load SMPLX:        12.74s
  Step 2 - Align FPS:         18.64s
  Step 3 - Init Retarget:     0.50s
  Step 4 - Init Visualization: 0.00s
  Step 5 - Process Frames:    224.56s (avg: 0.250s/frame)
  Step 6 - Convert Arrays:    0.01s
  Step 7 - Forward Kinematics: 1.22s
  Step 8 - Save Data:         0.03s
Status: SUCCESS
==================================================

=== SUCCESS LOG - 2025-10-14 20:28:05 ===
Input file: /data/retarget/locomotion/raw/AMASS_SMPLXG/Eyes_Japan_Dataset/kaiwa/pose-11-bended_knees-kaiwa_stageii.npz
Output file: ../robot/ik_based/pkl/008596.pkl
Robot type: unitree_g1
Processing time: 313.37 seconds

STEP-BY-STEP TIMING:
  Step 1 - Load SMPLX:        10.61s
  Step 2 - Align FPS:         19.91s
  Step 3 - Init Retarget:     0.44s
  Step 4 - Init Visualization: 0.00s
  Step 5 - Process Frames:    280.27s (avg: 0.311s/frame)
  Step 6 - Convert Arrays:    0.01s
  Step 7 - Forward Kinematics: 1.12s
  Step 8 - Save Data:         0.02s
Status: SUCCESS
==================================================

=== SUCCESS LOG - 2025-10-14 20:28:29 ===
Input file: /data/retarget/locomotion/raw/AMASS_SMPLXG/Eyes_Japan_Dataset/kaiwa/pose-12-body_building-kaiwa_stageii.npz
Output file: ../robot/ik_based/pkl/008597.pkl
Robot type: unitree_g1
Processing time: 264.38 seconds

STEP-BY-STEP TIMING:
  Step 1 - Load SMPLX:        9.17s
  Step 2 - Align FPS:         16.95s
  Step 3 - Init Retarget:     0.38s
  Step 4 - Init Visualization: 0.01s
  Step 5 - Process Frames:    236.25s (avg: 0.262s/frame)
  Step 6 - Convert Arrays:    0.00s
  Step 7 - Forward Kinematics: 0.83s
  Step 8 - Save Data:         0.04s
Status: SUCCESS
==================================================

=== SUCCESS LOG - 2025-10-14 20:28:36 ===
Input file: /data/retarget/locomotion/raw/AMASS_SMPLXG/Eyes_Japan_Dataset/kaiwa/pose-14-look_up-kaiwa_stageii.npz
Output file: ../robot/ik_based/pkl/008599.pkl
Robot type: unitree_g1
Processing time: 226.23 seconds

STEP-BY-STEP TIMING:
  Step 1 - Load SMPLX:        9.87s
  Step 2 - Align FPS:         13.76s
  Step 3 - Init Retarget:     0.51s
  Step 4 - Init Visualization: 0.00s
  Step 5 - Process Frames:    200.54s (avg: 0.223s/frame)
  Step 6 - Convert Arrays:    0.01s
  Step 7 - Forward Kinematics: 0.86s
  Step 8 - Save Data:         0.01s
Status: SUCCESS
==================================================

=== SUCCESS LOG - 2025-10-14 20:29:33 ===
Input file: /data/retarget/locomotion/raw/AMASS_SMPLXG/Eyes_Japan_Dataset/kaiwa/pose-15-look_down-kaiwa_stageii.npz
Output file: ../robot/ik_based/pkl/008600.pkl
Robot type: unitree_g1
Processing time: 225.94 seconds

STEP-BY-STEP TIMING:
  Step 1 - Load SMPLX:        10.23s
  Step 2 - Align FPS:         18.48s
  Step 3 - Init Retarget:     0.42s
  Step 4 - Init Visualization: 0.00s
  Step 5 - Process Frames:    194.66s (avg: 0.216s/frame)
  Step 6 - Convert Arrays:    0.01s
  Step 7 - Forward Kinematics: 1.17s
  Step 8 - Save Data:         0.03s
Status: SUCCESS
==================================================

=== SUCCESS LOG - 2025-10-14 20:30:32 ===
Input file: /data/retarget/locomotion/raw/AMASS_SMPLXG/Eyes_Japan_Dataset/kaiwa/pose-18-applause-kaiwa_stageii.npz
Output file: ../robot/ik_based/pkl/008602.pkl
Robot type: unitree_g1
Processing time: 222.86 seconds

STEP-BY-STEP TIMING:
  Step 1 - Load SMPLX:        9.41s
  Step 2 - Align FPS:         14.88s
  Step 3 - Init Retarget:     0.37s
  Step 4 - Init Visualization: 0.01s
  Step 5 - Process Frames:    196.14s (avg: 0.218s/frame)
  Step 6 - Convert Arrays:    0.00s
  Step 7 - Forward Kinematics: 1.12s
  Step 8 - Save Data:         0.04s
Status: SUCCESS
==================================================

=== SUCCESS LOG - 2025-10-14 20:32:05 ===
Input file: /data/retarget/locomotion/raw/AMASS_SMPLXG/Eyes_Japan_Dataset/kaiwa/sitdown_standup-09-squat_down-kaiwa_stageii.npz
Output file: ../robot/ik_based/pkl/008605.pkl
Robot type: unitree_g1
Processing time: 238.48 seconds

STEP-BY-STEP TIMING:
  Step 1 - Load SMPLX:        9.03s
  Step 2 - Align FPS:         17.12s
  Step 3 - Init Retarget:     0.34s
  Step 4 - Init Visualization: 0.00s
  Step 5 - Process Frames:    209.76s (avg: 0.233s/frame)
  Step 6 - Convert Arrays:    0.00s
  Step 7 - Forward Kinematics: 1.13s
  Step 8 - Save Data:         0.04s
Status: SUCCESS
==================================================

=== SUCCESS LOG - 2025-10-14 20:32:40 ===
Input file: /data/retarget/locomotion/raw/AMASS_SMPLXG/Eyes_Japan_Dataset/kaiwa/tennis-02-forehand_lob-kaiwa_stageii.npz
Output file: ../robot/ik_based/pkl/008606.pkl
Robot type: unitree_g1
Processing time: 251.02 seconds

STEP-BY-STEP TIMING:
  Step 1 - Load SMPLX:        10.16s
  Step 2 - Align FPS:         21.64s
  Step 3 - Init Retarget:     0.40s
  Step 4 - Init Visualization: 0.00s
  Step 5 - Process Frames:    216.63s (avg: 0.241s/frame)
  Step 6 - Convert Arrays:    0.00s
  Step 7 - Forward Kinematics: 1.17s
  Step 8 - Save Data:         0.03s
Status: SUCCESS
==================================================

=== SUCCESS LOG - 2025-10-14 20:32:43 ===
Input file: /data/retarget/locomotion/raw/AMASS_SMPLXG/Eyes_Japan_Dataset/kaiwa/tennis-06-forehand_smash-kaiwa_stageii.npz
Output file: ../robot/ik_based/pkl/008607.pkl
Robot type: unitree_g1
Processing time: 246.33 seconds

STEP-BY-STEP TIMING:
  Step 1 - Load SMPLX:        13.84s
  Step 2 - Align FPS:         16.80s
  Step 3 - Init Retarget:     0.37s
  Step 4 - Init Visualization: 0.00s
  Step 5 - Process Frames:    213.63s (avg: 0.237s/frame)
  Step 6 - Convert Arrays:    0.00s
  Step 7 - Forward Kinematics: 0.91s
  Step 8 - Save Data:         0.01s
Status: SUCCESS
==================================================

=== SUCCESS LOG - 2025-10-14 20:33:28 ===
Input file: /data/retarget/locomotion/raw/AMASS_SMPLXG/Eyes_Japan_Dataset/kaiwa/tennis-18-catch_netball-kaiwa_stageii.npz
Output file: ../robot/ik_based/pkl/008608.pkl
Robot type: unitree_g1
Processing time: 233.56 seconds

STEP-BY-STEP TIMING:
  Step 1 - Load SMPLX:        9.27s
  Step 2 - Align FPS:         16.18s
  Step 3 - Init Retarget:     0.42s
  Step 4 - Init Visualization: 0.00s
  Step 5 - Process Frames:    205.51s (avg: 0.228s/frame)
  Step 6 - Convert Arrays:    0.00s
  Step 7 - Forward Kinematics: 1.12s
  Step 8 - Save Data:         0.02s
Status: SUCCESS
==================================================

=== SUCCESS LOG - 2025-10-14 20:35:14 ===
Input file: /data/retarget/locomotion/raw/AMASS_SMPLXG/Eyes_Japan_Dataset/kaiwa/throw_toss-09-shotput-kaiwa_stageii.npz
Output file: ../robot/ik_based/pkl/008610.pkl
Robot type: unitree_g1
Processing time: 281.34 seconds

STEP-BY-STEP TIMING:
  Step 1 - Load SMPLX:        9.92s
  Step 2 - Align FPS:         15.05s
  Step 3 - Init Retarget:     0.34s
  Step 4 - Init Visualization: 0.00s
  Step 5 - Process Frames:    253.89s (avg: 0.282s/frame)
  Step 6 - Convert Arrays:    0.00s
  Step 7 - Forward Kinematics: 1.20s
  Step 8 - Save Data:         0.03s
Status: SUCCESS
==================================================

=== SUCCESS LOG - 2025-10-14 20:36:17 ===
Input file: /data/retarget/locomotion/raw/AMASS_SMPLXG/Eyes_Japan_Dataset/kaiwa/throw_toss-13-pass_to_right_light-kaiwa_stageii.npz
Output file: ../robot/ik_based/pkl/008612.pkl
Robot type: unitree_g1
Processing time: 251.83 seconds

STEP-BY-STEP TIMING:
  Step 1 - Load SMPLX:        8.75s
  Step 2 - Align FPS:         14.65s
  Step 3 - Init Retarget:     0.40s
  Step 4 - Init Visualization: 0.00s
  Step 5 - Process Frames:    225.93s (avg: 0.251s/frame)
  Step 6 - Convert Arrays:    0.00s
  Step 7 - Forward Kinematics: 1.05s
  Step 8 - Save Data:         0.03s
Status: SUCCESS
==================================================

=== SUCCESS LOG - 2025-10-14 20:37:00 ===
Input file: /data/retarget/locomotion/raw/AMASS_SMPLXG/Eyes_Japan_Dataset/kaiwa/throw_toss-14-pass_to_right_heavy-kaiwa_stageii.npz
Output file: ../robot/ik_based/pkl/008613.pkl
Robot type: unitree_g1
Processing time: 258.36 seconds

STEP-BY-STEP TIMING:
  Step 1 - Load SMPLX:        8.38s
  Step 2 - Align FPS:         20.03s
  Step 3 - Init Retarget:     0.39s
  Step 4 - Init Visualization: 0.00s
  Step 5 - Process Frames:    227.37s (avg: 0.253s/frame)
  Step 6 - Convert Arrays:    0.01s
  Step 7 - Forward Kinematics: 1.10s
  Step 8 - Save Data:         0.04s
Status: SUCCESS
==================================================

=== SUCCESS LOG - 2025-10-14 20:37:27 ===
Input file: /data/retarget/locomotion/raw/AMASS_SMPLXG/Eyes_Japan_Dataset/kaiwa/throw_toss-17-pass_to_back_light-kaiwa_stageii.npz
Output file: ../robot/ik_based/pkl/008614.pkl
Robot type: unitree_g1
Processing time: 283.34 seconds

STEP-BY-STEP TIMING:
  Step 1 - Load SMPLX:        9.84s
  Step 2 - Align FPS:         21.37s
  Step 3 - Init Retarget:     0.34s
  Step 4 - Init Visualization: 0.00s
  Step 5 - Process Frames:    248.53s (avg: 0.276s/frame)
  Step 6 - Convert Arrays:    0.00s
  Step 7 - Forward Kinematics: 0.75s
  Step 8 - Save Data:         0.03s
Status: SUCCESS
==================================================

=== SUCCESS LOG - 2025-10-14 20:38:18 ===
Input file: /data/retarget/locomotion/raw/AMASS_SMPLXG/Eyes_Japan_Dataset/kaiwa/throw_toss-18-pass_to_back_heavy-kaiwa_stageii.npz
Output file: ../robot/ik_based/pkl/008615.pkl
Robot type: unitree_g1
Processing time: 288.96 seconds

STEP-BY-STEP TIMING:
  Step 1 - Load SMPLX:        8.99s
  Step 2 - Align FPS:         18.22s
  Step 3 - Init Retarget:     0.38s
  Step 4 - Init Visualization: 0.00s
  Step 5 - Process Frames:    259.00s (avg: 0.288s/frame)
  Step 6 - Convert Arrays:    0.01s
  Step 7 - Forward Kinematics: 1.22s
  Step 8 - Save Data:         0.02s
Status: SUCCESS
==================================================

=== SUCCESS LOG - 2025-10-14 20:39:03 ===
Input file: /data/retarget/locomotion/raw/AMASS_SMPLXG/Eyes_Japan_Dataset/kaiwa/turn-01-call-kaiwa_stageii.npz
Output file: ../robot/ik_based/pkl/008618.pkl
Robot type: unitree_g1
Processing time: 227.32 seconds

STEP-BY-STEP TIMING:
  Step 1 - Load SMPLX:        8.73s
  Step 2 - Align FPS:         11.35s
  Step 3 - Init Retarget:     0.39s
  Step 4 - Init Visualization: 0.00s
  Step 5 - Process Frames:    204.63s (avg: 0.227s/frame)
  Step 6 - Convert Arrays:    0.01s
  Step 7 - Forward Kinematics: 1.14s
  Step 8 - Save Data:         0.03s
Status: SUCCESS
==================================================

=== SUCCESS LOG - 2025-10-14 20:39:29 ===
Input file: /data/retarget/locomotion/raw/AMASS_SMPLXG/Eyes_Japan_Dataset/kaiwa/turn-03-look_at-kaiwa_stageii.npz
Output file: ../robot/ik_based/pkl/008620.pkl
Robot type: unitree_g1
Processing time: 190.18 seconds

STEP-BY-STEP TIMING:
  Step 1 - Load SMPLX:        9.74s
  Step 2 - Align FPS:         17.60s
  Step 3 - Init Retarget:     0.42s
  Step 4 - Init Visualization: 0.00s
  Step 5 - Process Frames:    160.74s (avg: 0.179s/frame)
  Step 6 - Convert Arrays:    0.00s
  Step 7 - Forward Kinematics: 0.87s
  Step 8 - Save Data:         0.02s
Status: SUCCESS
==================================================

=== SUCCESS LOG - 2025-10-14 20:40:42 ===
Input file: /data/retarget/locomotion/raw/AMASS_SMPLXG/Eyes_Japan_Dataset/kaiwa/turn-05-turn-kaiwa_stageii.npz
Output file: ../robot/ik_based/pkl/008621.pkl
Robot type: unitree_g1
Processing time: 221.13 seconds

STEP-BY-STEP TIMING:
  Step 1 - Load SMPLX:        9.35s
  Step 2 - Align FPS:         17.15s
  Step 3 - Init Retarget:     0.41s
  Step 4 - Init Visualization: 0.00s
  Step 5 - Process Frames:    191.98s (avg: 0.213s/frame)
  Step 6 - Convert Arrays:    0.00s
  Step 7 - Forward Kinematics: 1.18s
  Step 8 - Save Data:         0.02s
Status: SUCCESS
==================================================

=== SUCCESS LOG - 2025-10-14 20:41:32 ===
Input file: /data/retarget/locomotion/raw/AMASS_SMPLXG/Eyes_Japan_Dataset/kaiwa/walk-26-exhausted-kaiwa_stageii.npz
Output file: ../robot/ik_based/pkl/008624.pkl
Robot type: unitree_g1
Processing time: 192.81 seconds

STEP-BY-STEP TIMING:
  Step 1 - Load SMPLX:        9.49s
  Step 2 - Align FPS:         18.35s
  Step 3 - Init Retarget:     0.48s
  Step 4 - Init Visualization: 0.00s
  Step 5 - Process Frames:    162.19s (avg: 0.183s/frame)
  Step 6 - Convert Arrays:    0.00s
  Step 7 - Forward Kinematics: 1.43s
  Step 8 - Save Data:         0.02s
Status: SUCCESS
==================================================

=== SUCCESS LOG - 2025-10-14 20:42:25 ===
Input file: /data/retarget/locomotion/raw/AMASS_SMPLXG/Eyes_Japan_Dataset/kaiwa/walk-27-thinking-kaiwa_stageii.npz
Output file: ../robot/ik_based/pkl/008625.pkl
Robot type: unitree_g1
Processing time: 202.17 seconds

STEP-BY-STEP TIMING:
  Step 1 - Load SMPLX:        9.48s
  Step 2 - Align FPS:         18.01s
  Step 3 - Init Retarget:     0.33s
  Step 4 - Init Visualization: 0.00s
  Step 5 - Process Frames:    172.10s (avg: 0.194s/frame)
  Step 6 - Convert Arrays:    0.00s
  Step 7 - Forward Kinematics: 1.19s
  Step 8 - Save Data:         0.02s
Status: SUCCESS
==================================================

=== SUCCESS LOG - 2025-10-14 20:42:46 ===
Input file: /data/retarget/locomotion/raw/AMASS_SMPLXG/Eyes_Japan_Dataset/kaiwa/walk-16-push_by_hand-kaiwa_stageii.npz
Output file: ../robot/ik_based/pkl/008622.pkl
Robot type: unitree_g1
Processing time: 318.41 seconds

STEP-BY-STEP TIMING:
  Step 1 - Load SMPLX:        9.60s
  Step 2 - Align FPS:         18.53s
  Step 3 - Init Retarget:     0.40s
  Step 4 - Init Visualization: 0.00s
  Step 5 - Process Frames:    288.12s (avg: 0.321s/frame)
  Step 6 - Convert Arrays:    0.00s
  Step 7 - Forward Kinematics: 0.95s
  Step 8 - Save Data:         0.02s
Status: SUCCESS
==================================================

=== SUCCESS LOG - 2025-10-14 20:42:59 ===
Input file: /data/retarget/locomotion/raw/AMASS_SMPLXG/Eyes_Japan_Dataset/kaiwa/walk-29-look_down-kaiwa_stageii.npz
Output file: ../robot/ik_based/pkl/008626.pkl
Robot type: unitree_g1
Processing time: 208.17 seconds

STEP-BY-STEP TIMING:
  Step 1 - Load SMPLX:        9.91s
  Step 2 - Align FPS:         17.88s
  Step 3 - Init Retarget:     0.38s
  Step 4 - Init Visualization: 0.00s
  Step 5 - Process Frames:    177.95s (avg: 0.201s/frame)
  Step 6 - Convert Arrays:    0.01s
  Step 7 - Forward Kinematics: 0.88s
  Step 8 - Save Data:         0.05s
Status: SUCCESS
==================================================

=== SUCCESS LOG - 2025-10-14 20:44:01 ===
Input file: /data/retarget/locomotion/raw/AMASS_SMPLXG/Eyes_Japan_Dataset/kanno/accident-03-damage_head-kanno_stageii.npz
Output file: ../robot/ik_based/pkl/008629.pkl
Robot type: unitree_g1
Processing time: 198.53 seconds

STEP-BY-STEP TIMING:
  Step 1 - Load SMPLX:        9.34s
  Step 2 - Align FPS:         15.79s
  Step 3 - Init Retarget:     0.44s
  Step 4 - Init Visualization: 0.01s
  Step 5 - Process Frames:    170.92s (avg: 0.192s/frame)
  Step 6 - Convert Arrays:    0.00s
  Step 7 - Forward Kinematics: 1.00s
  Step 8 - Save Data:         0.02s
Status: SUCCESS
==================================================

=== SUCCESS LOG - 2025-10-14 20:45:12 ===
Input file: /data/retarget/locomotion/raw/AMASS_SMPLXG/Eyes_Japan_Dataset/kanno/accident-04-damage_right_leg-kanno_stageii.npz
Output file: ../robot/ik_based/pkl/008630.pkl
Robot type: unitree_g1
Processing time: 219.22 seconds

STEP-BY-STEP TIMING:
  Step 1 - Load SMPLX:        10.30s
  Step 2 - Align FPS:         23.27s
  Step 3 - Init Retarget:     0.31s
  Step 4 - Init Visualization: 0.00s
  Step 5 - Process Frames:    183.01s (avg: 0.205s/frame)
  Step 6 - Convert Arrays:    0.00s
  Step 7 - Forward Kinematics: 1.16s
  Step 8 - Save Data:         0.00s
Status: SUCCESS
==================================================

=== SUCCESS LOG - 2025-10-14 20:46:03 ===
Input file: /data/retarget/locomotion/raw/AMASS_SMPLXG/Eyes_Japan_Dataset/kanno/accident-06-damage_left_leg-kanno_stageii.npz
Output file: ../robot/ik_based/pkl/008632.pkl
Robot type: unitree_g1
Processing time: 217.11 seconds

STEP-BY-STEP TIMING:
  Step 1 - Load SMPLX:        9.43s
  Step 2 - Align FPS:         16.60s
  Step 3 - Init Retarget:     0.42s
  Step 4 - Init Visualization: 0.00s
  Step 5 - Process Frames:    188.60s (avg: 0.210s/frame)
  Step 6 - Convert Arrays:    0.00s
  Step 7 - Forward Kinematics: 0.98s
  Step 8 - Save Data:         0.03s
Status: SUCCESS
==================================================

=== SUCCESS LOG - 2025-10-14 20:46:27 ===
Input file: /data/retarget/locomotion/raw/AMASS_SMPLXG/Eyes_Japan_Dataset/kanno/accident-07-damage_left_arm-kanno_stageii.npz
Output file: ../robot/ik_based/pkl/008633.pkl
Robot type: unitree_g1
Processing time: 219.65 seconds

STEP-BY-STEP TIMING:
  Step 1 - Load SMPLX:        10.77s
  Step 2 - Align FPS:         15.58s
  Step 3 - Init Retarget:     0.81s
  Step 4 - Init Visualization: 0.00s
  Step 5 - Process Frames:    190.95s (avg: 0.212s/frame)
  Step 6 - Convert Arrays:    0.00s
  Step 7 - Forward Kinematics: 0.83s
  Step 8 - Save Data:         0.03s
Status: SUCCESS
==================================================

=== SUCCESS LOG - 2025-10-14 20:46:42 ===
Input file: /data/retarget/locomotion/raw/AMASS_SMPLXG/Eyes_Japan_Dataset/kanno/accident-08-damage_rightfoot-kanno_stageii.npz
Output file: ../robot/ik_based/pkl/008634.pkl
Robot type: unitree_g1
Processing time: 222.59 seconds

STEP-BY-STEP TIMING:
  Step 1 - Load SMPLX:        12.63s
  Step 2 - Align FPS:         22.25s
  Step 3 - Init Retarget:     0.35s
  Step 4 - Init Visualization: 0.00s
  Step 5 - Process Frames:    184.27s (avg: 0.207s/frame)
  Step 6 - Convert Arrays:    0.01s
  Step 7 - Forward Kinematics: 1.66s
  Step 8 - Save Data:         0.03s
Status: SUCCESS
==================================================

=== SUCCESS LOG - 2025-10-14 20:47:31 ===
Input file: /data/retarget/locomotion/raw/AMASS_SMPLXG/Eyes_Japan_Dataset/kanno/accident-10-spasm-kanno_stageii.npz
Output file: ../robot/ik_based/pkl/008635.pkl
Robot type: unitree_g1
Processing time: 208.89 seconds

STEP-BY-STEP TIMING:
  Step 1 - Load SMPLX:        9.38s
  Step 2 - Align FPS:         14.38s
  Step 3 - Init Retarget:     0.38s
  Step 4 - Init Visualization: 0.00s
  Step 5 - Process Frames:    182.65s (avg: 0.205s/frame)
  Step 6 - Convert Arrays:    0.01s
  Step 7 - Forward Kinematics: 1.06s
  Step 8 - Save Data:         0.03s
Status: SUCCESS
==================================================

=== SUCCESS LOG - 2025-10-14 20:48:27 ===
Input file: /data/retarget/locomotion/raw/AMASS_SMPLXG/Eyes_Japan_Dataset/kanno/accident-13-damage_back-kanno_stageii.npz
Output file: ../robot/ik_based/pkl/008638.pkl
Robot type: unitree_g1
Processing time: 194.53 seconds

STEP-BY-STEP TIMING:
  Step 1 - Load SMPLX:        9.30s
  Step 2 - Align FPS:         18.60s
  Step 3 - Init Retarget:     0.47s
  Step 4 - Init Visualization: 0.00s
  Step 5 - Process Frames:    163.96s (avg: 0.184s/frame)
  Step 6 - Convert Arrays:    0.00s
  Step 7 - Forward Kinematics: 1.11s
  Step 8 - Save Data:         0.03s
Status: SUCCESS
==================================================

=== SUCCESS LOG - 2025-10-14 20:49:33 ===
Input file: /data/retarget/locomotion/raw/AMASS_SMPLXG/Eyes_Japan_Dataset/kanno/accident-14-dodge_turn_down-kanno_stageii.npz
Output file: ../robot/ik_based/pkl/008639.pkl
Robot type: unitree_g1
Processing time: 208.66 seconds

STEP-BY-STEP TIMING:
  Step 1 - Load SMPLX:        9.67s
  Step 2 - Align FPS:         16.76s
  Step 3 - Init Retarget:     0.40s
  Step 4 - Init Visualization: 0.00s
  Step 5 - Process Frames:    179.71s (avg: 0.201s/frame)
  Step 6 - Convert Arrays:    0.00s
  Step 7 - Forward Kinematics: 1.17s
  Step 8 - Save Data:         0.02s
Status: SUCCESS
==================================================

=== SUCCESS LOG - 2025-10-14 20:50:21 ===
Input file: /data/retarget/locomotion/raw/AMASS_SMPLXG/Eyes_Japan_Dataset/kanno/gesture_etc-36-shame-kanno_stageii.npz
Output file: ../robot/ik_based/pkl/008641.pkl
Robot type: unitree_g1
Processing time: 217.74 seconds

STEP-BY-STEP TIMING:
  Step 1 - Load SMPLX:        12.65s
  Step 2 - Align FPS:         18.80s
  Step 3 - Init Retarget:     0.37s
  Step 4 - Init Visualization: 0.00s
  Step 5 - Process Frames:    183.95s (avg: 0.188s/frame)
  Step 6 - Convert Arrays:    0.00s
  Step 7 - Forward Kinematics: 1.16s
  Step 8 - Save Data:         0.03s
Status: SUCCESS
==================================================

=== SUCCESS LOG - 2025-10-14 20:50:22 ===
Input file: /data/retarget/locomotion/raw/AMASS_SMPLXG/Eyes_Japan_Dataset/kanno/accident-15-knock_head_2-kanno_stageii.npz
Output file: ../robot/ik_based/pkl/008640.pkl
Robot type: unitree_g1
Processing time: 233.86 seconds

STEP-BY-STEP TIMING:
  Step 1 - Load SMPLX:        10.20s
  Step 2 - Align FPS:         16.43s
  Step 3 - Init Retarget:     0.44s
  Step 4 - Init Visualization: 0.00s
  Step 5 - Process Frames:    205.68s (avg: 0.231s/frame)
  Step 6 - Convert Arrays:    0.01s
  Step 7 - Forward Kinematics: 0.83s
  Step 8 - Save Data:         0.01s
Status: SUCCESS
==================================================

=== SUCCESS LOG - 2025-10-14 20:52:33 ===
Input file: /data/retarget/locomotion/raw/AMASS_SMPLXG/Eyes_Japan_Dataset/kanno/gesture_etc-43-brush_teeth-kanno_stageii.npz
Output file: ../robot/ik_based/pkl/008644.pkl
Robot type: unitree_g1
Processing time: 245.52 seconds

STEP-BY-STEP TIMING:
  Step 1 - Load SMPLX:        9.99s
  Step 2 - Align FPS:         20.99s
  Step 3 - Init Retarget:     0.49s
  Step 4 - Init Visualization: 0.00s
  Step 5 - Process Frames:    211.59s (avg: 0.211s/frame)
  Step 6 - Convert Arrays:    0.00s
  Step 7 - Forward Kinematics: 1.42s
  Step 8 - Save Data:         0.02s
Status: SUCCESS
==================================================

=== SUCCESS LOG - 2025-10-14 20:52:55 ===
Input file: /data/retarget/locomotion/raw/AMASS_SMPLXG/Eyes_Japan_Dataset/kanno/gesture_etc-40-head_banging-kanno_stageii.npz
Output file: ../robot/ik_based/pkl/008642.pkl
Robot type: unitree_g1
Processing time: 323.00 seconds

STEP-BY-STEP TIMING:
  Step 1 - Load SMPLX:        9.84s
  Step 2 - Align FPS:         18.73s
  Step 3 - Init Retarget:     0.32s
  Step 4 - Init Visualization: 0.00s
  Step 5 - Process Frames:    290.15s (avg: 0.295s/frame)
  Step 6 - Convert Arrays:    0.01s
  Step 7 - Forward Kinematics: 1.96s
  Step 8 - Save Data:         0.08s
Status: SUCCESS
==================================================

=== SUCCESS LOG - 2025-10-14 20:53:32 ===
Input file: /data/retarget/locomotion/raw/AMASS_SMPLXG/Eyes_Japan_Dataset/kanno/gesture_etc-46-vomit_of_blood-kanno_stageii.npz
Output file: ../robot/ik_based/pkl/008646.pkl
Robot type: unitree_g1
Processing time: 237.98 seconds

STEP-BY-STEP TIMING:
  Step 1 - Load SMPLX:        9.71s
  Step 2 - Align FPS:         20.40s
  Step 3 - Init Retarget:     0.42s
  Step 4 - Init Visualization: 0.00s
  Step 5 - Process Frames:    205.13s (avg: 0.203s/frame)
  Step 6 - Convert Arrays:    0.00s
  Step 7 - Forward Kinematics: 1.25s
  Step 8 - Save Data:         0.05s
Status: SUCCESS
==================================================

=== SUCCESS LOG - 2025-10-14 20:54:19 ===
Input file: /data/retarget/locomotion/raw/AMASS_SMPLXG/Eyes_Japan_Dataset/kanno/gesture_etc-50-syuriken-kanno_stageii.npz
Output file: ../robot/ik_based/pkl/008647.pkl
Robot type: unitree_g1
Processing time: 236.43 seconds

STEP-BY-STEP TIMING:
  Step 1 - Load SMPLX:        9.49s
  Step 2 - Align FPS:         26.02s
  Step 3 - Init Retarget:     0.42s
  Step 4 - Init Visualization: 0.00s
  Step 5 - Process Frames:    199.06s (avg: 0.202s/frame)
  Step 6 - Convert Arrays:    0.01s
  Step 7 - Forward Kinematics: 0.75s
  Step 8 - Save Data:         0.02s
Status: SUCCESS
==================================================

=== SUCCESS LOG - 2025-10-14 20:54:20 ===
Input file: /data/retarget/locomotion/raw/AMASS_SMPLXG/Eyes_Japan_Dataset/kanno/greeting-01-hello-kanno_stageii.npz
Output file: ../robot/ik_based/pkl/008648.pkl
Robot type: unitree_g1
Processing time: 236.78 seconds

STEP-BY-STEP TIMING:
  Step 1 - Load SMPLX:        8.93s
  Step 2 - Align FPS:         25.92s
  Step 3 - Init Retarget:     0.59s
  Step 4 - Init Visualization: 0.00s
  Step 5 - Process Frames:    199.74s (avg: 0.199s/frame)
  Step 6 - Convert Arrays:    0.00s
  Step 7 - Forward Kinematics: 0.69s
  Step 8 - Save Data:         0.03s
Status: SUCCESS
==================================================

=== SUCCESS LOG - 2025-10-14 20:56:08 ===
Input file: /data/retarget/locomotion/raw/AMASS_SMPLXG/Eyes_Japan_Dataset/kanno/greeting-07-bow-kanno_stageii.npz
Output file: ../robot/ik_based/pkl/008652.pkl
Robot type: unitree_g1
Processing time: 213.46 seconds

STEP-BY-STEP TIMING:
  Step 1 - Load SMPLX:        10.33s
  Step 2 - Align FPS:         18.90s
  Step 3 - Init Retarget:     0.52s
  Step 4 - Init Visualization: 0.03s
  Step 5 - Process Frames:    181.71s (avg: 0.180s/frame)
  Step 6 - Convert Arrays:    0.01s
  Step 7 - Forward Kinematics: 0.89s
  Step 8 - Save Data:         0.02s
Status: SUCCESS
==================================================

=== SUCCESS LOG - 2025-10-14 20:56:32 ===
Input file: /data/retarget/locomotion/raw/AMASS_SMPLXG/Eyes_Japan_Dataset/kanno/greeting-08-shakehands-kanno_stageii.npz
Output file: ../robot/ik_based/pkl/008653.pkl
Robot type: unitree_g1
Processing time: 216.20 seconds

STEP-BY-STEP TIMING:
  Step 1 - Load SMPLX:        10.97s
  Step 2 - Align FPS:         18.81s
  Step 3 - Init Retarget:     0.36s
  Step 4 - Init Visualization: 0.00s
  Step 5 - Process Frames:    184.52s (avg: 0.180s/frame)
  Step 6 - Convert Arrays:    0.00s
  Step 7 - Forward Kinematics: 0.69s
  Step 8 - Save Data:         0.02s
Status: SUCCESS
==================================================

=== SUCCESS LOG - 2025-10-14 20:57:19 ===
Input file: /data/retarget/locomotion/raw/AMASS_SMPLXG/Eyes_Japan_Dataset/kanno/greeting-09-certificate-kanno_stageii.npz
Output file: ../robot/ik_based/pkl/008654.pkl
Robot type: unitree_g1
Processing time: 226.47 seconds

STEP-BY-STEP TIMING:
  Step 1 - Load SMPLX:        10.40s
  Step 2 - Align FPS:         17.82s
  Step 3 - Init Retarget:     0.37s
  Step 4 - Init Visualization: 0.00s
  Step 5 - Process Frames:    195.67s (avg: 0.194s/frame)
  Step 6 - Convert Arrays:    0.01s
  Step 7 - Forward Kinematics: 1.25s
  Step 8 - Save Data:         0.02s
Status: SUCCESS
==================================================

=== SUCCESS LOG - 2025-10-14 20:59:02 ===
Input file: /data/retarget/locomotion/raw/AMASS_SMPLXG/Eyes_Japan_Dataset/kanno/jump-08-rope_backward-kanno_stageii.npz
Output file: ../robot/ik_based/pkl/008656.pkl
Robot type: unitree_g1
Processing time: 281.46 seconds

STEP-BY-STEP TIMING:
  Step 1 - Load SMPLX:        9.35s
  Step 2 - Align FPS:         21.75s
  Step 3 - Init Retarget:     0.40s
  Step 4 - Init Visualization: 0.00s
  Step 5 - Process Frames:    247.74s (avg: 0.254s/frame)
  Step 6 - Convert Arrays:    0.00s
  Step 7 - Forward Kinematics: 1.17s
  Step 8 - Save Data:         0.02s
Status: SUCCESS
==================================================

=== ERROR LOG - 2025-10-14 20:59:11 ===
Input file: /data/retarget/locomotion/raw/AMASS_SMPLXG/Eyes_Japan_Dataset/kanno/male_stagei.npz
Output file: ../robot/ik_based/pkl/008661.pkl
Robot type: unitree_g1
Processing time: 7.69 seconds
Error message: 'pose_body is not a file in the archive'
Error type: KeyError
==================================================

=== SUCCESS LOG - 2025-10-14 21:00:13 ===
Input file: /data/retarget/locomotion/raw/AMASS_SMPLXG/Eyes_Japan_Dataset/kanno/jump-10-rope_long-kanno_stageii.npz
Output file: ../robot/ik_based/pkl/008658.pkl
Robot type: unitree_g1
Processing time: 220.36 seconds

STEP-BY-STEP TIMING:
  Step 1 - Load SMPLX:        11.26s
  Step 2 - Align FPS:         19.68s
  Step 3 - Init Retarget:     0.39s
  Step 4 - Init Visualization: 0.00s
  Step 5 - Process Frames:    186.69s (avg: 0.182s/frame)
  Step 6 - Convert Arrays:    0.01s
  Step 7 - Forward Kinematics: 1.10s
  Step 8 - Save Data:         0.04s
Status: SUCCESS
==================================================

=== SUCCESS LOG - 2025-10-14 21:01:12 ===
Input file: /data/retarget/locomotion/raw/AMASS_SMPLXG/Eyes_Japan_Dataset/kanno/jump-07-rope_double-kanno_stageii.npz
Output file: ../robot/ik_based/pkl/008655.pkl
Robot type: unitree_g1
Processing time: 411.86 seconds

STEP-BY-STEP TIMING:
  Step 1 - Load SMPLX:        8.93s
  Step 2 - Align FPS:         20.76s
  Step 3 - Init Retarget:     1.28s
  Step 4 - Init Visualization: 0.02s
  Step 5 - Process Frames:    378.28s (avg: 0.385s/frame)
  Step 6 - Convert Arrays:    0.01s
  Step 7 - Forward Kinematics: 1.14s
  Step 8 - Save Data:         0.03s
Status: SUCCESS
==================================================

=== SUCCESS LOG - 2025-10-14 21:02:20 ===
Input file: /data/retarget/locomotion/raw/AMASS_SMPLXG/Eyes_Japan_Dataset/kanno/pose-07-pray_cross-kanno_stageii.npz
Output file: ../robot/ik_based/pkl/008663.pkl
Robot type: unitree_g1
Processing time: 189.55 seconds

STEP-BY-STEP TIMING:
  Step 1 - Load SMPLX:        10.36s
  Step 2 - Align FPS:         20.80s
  Step 3 - Init Retarget:     0.43s
  Step 4 - Init Visualization: 0.00s
  Step 5 - Process Frames:    156.15s (avg: 0.175s/frame)
  Step 6 - Convert Arrays:    0.00s
  Step 7 - Forward Kinematics: 0.94s
  Step 8 - Save Data:         0.03s
Status: SUCCESS
==================================================

=== SUCCESS LOG - 2025-10-14 21:02:50 ===
Input file: /data/retarget/locomotion/raw/AMASS_SMPLXG/Eyes_Japan_Dataset/kanno/jump-12-boxer_step-kanno_stageii.npz
Output file: ../robot/ik_based/pkl/008659.pkl
Robot type: unitree_g1
Processing time: 330.45 seconds

STEP-BY-STEP TIMING:
  Step 1 - Load SMPLX:        9.61s
  Step 2 - Align FPS:         20.04s
  Step 3 - Init Retarget:     0.45s
  Step 4 - Init Visualization: 0.01s
  Step 5 - Process Frames:    298.27s (avg: 0.299s/frame)
  Step 6 - Convert Arrays:    0.01s
  Step 7 - Forward Kinematics: 1.02s
  Step 8 - Save Data:         0.03s
Status: SUCCESS
==================================================

=== SUCCESS LOG - 2025-10-14 21:03:24 ===
Input file: /data/retarget/locomotion/raw/AMASS_SMPLXG/Eyes_Japan_Dataset/kanno/jump-09-rope_cross-kanno_stageii.npz
Output file: ../robot/ik_based/pkl/008657.pkl
Robot type: unitree_g1
Processing time: 434.99 seconds

STEP-BY-STEP TIMING:
  Step 1 - Load SMPLX:        10.65s
  Step 2 - Align FPS:         19.90s
  Step 3 - Init Retarget:     0.36s
  Step 4 - Init Visualization: 0.00s
  Step 5 - Process Frames:    401.74s (avg: 0.399s/frame)
  Step 6 - Convert Arrays:    0.01s
  Step 7 - Forward Kinematics: 1.14s
  Step 8 - Save Data:         0.04s
Status: SUCCESS
==================================================

=== SUCCESS LOG - 2025-10-14 21:04:07 ===
Input file: /data/retarget/locomotion/raw/AMASS_SMPLXG/Eyes_Japan_Dataset/kanno/pose-11-bended_knees-kanno_stageii.npz
Output file: ../robot/ik_based/pkl/008666.pkl
Robot type: unitree_g1
Processing time: 232.51 seconds

STEP-BY-STEP TIMING:
  Step 1 - Load SMPLX:        8.51s
  Step 2 - Align FPS:         13.60s
  Step 3 - Init Retarget:     0.39s
  Step 4 - Init Visualization: 0.00s
  Step 5 - Process Frames:    207.88s (avg: 0.233s/frame)
  Step 6 - Convert Arrays:    0.00s
  Step 7 - Forward Kinematics: 1.09s
  Step 8 - Save Data:         0.04s
Status: SUCCESS
==================================================

=== SUCCESS LOG - 2025-10-14 21:04:13 ===
Input file: /data/retarget/locomotion/raw/AMASS_SMPLXG/Eyes_Japan_Dataset/kanno/pose-13-model-kanno_stageii.npz
Output file: ../robot/ik_based/pkl/008668.pkl
Robot type: unitree_g1
Processing time: 179.74 seconds

STEP-BY-STEP TIMING:
  Step 1 - Load SMPLX:        9.16s
  Step 2 - Align FPS:         15.34s
  Step 3 - Init Retarget:     0.55s
  Step 4 - Init Visualization: 0.00s
  Step 5 - Process Frames:    153.34s (avg: 0.172s/frame)
  Step 6 - Convert Arrays:    0.01s
  Step 7 - Forward Kinematics: 0.73s
  Step 8 - Save Data:         0.02s
Status: SUCCESS
==================================================

=== SUCCESS LOG - 2025-10-14 21:05:49 ===
Input file: /data/retarget/locomotion/raw/AMASS_SMPLXG/Eyes_Japan_Dataset/kanno/pose-15-look_down-kanno_stageii.npz
Output file: ../robot/ik_based/pkl/008670.pkl
Robot type: unitree_g1
Processing time: 207.67 seconds

STEP-BY-STEP TIMING:
  Step 1 - Load SMPLX:        9.07s
  Step 2 - Align FPS:         17.22s
  Step 3 - Init Retarget:     0.37s
  Step 4 - Init Visualization: 0.01s
  Step 5 - Process Frames:    178.74s (avg: 0.200s/frame)
  Step 6 - Convert Arrays:    0.00s
  Step 7 - Forward Kinematics: 1.06s
  Step 8 - Save Data:         0.03s
Status: SUCCESS
==================================================

=== SUCCESS LOG - 2025-10-14 21:06:42 ===
Input file: /data/retarget/locomotion/raw/AMASS_SMPLXG/Eyes_Japan_Dataset/kanno/pose-17-one_leg-kanno_stageii.npz
Output file: ../robot/ik_based/pkl/008672.pkl
Robot type: unitree_g1
Processing time: 197.18 seconds

STEP-BY-STEP TIMING:
  Step 1 - Load SMPLX:        9.78s
  Step 2 - Align FPS:         14.94s
  Step 3 - Init Retarget:     0.39s
  Step 4 - Init Visualization: 0.00s
  Step 5 - Process Frames:    170.26s (avg: 0.191s/frame)
  Step 6 - Convert Arrays:    0.01s
  Step 7 - Forward Kinematics: 0.87s
  Step 8 - Save Data:         0.04s
Status: SUCCESS
==================================================

=== SUCCESS LOG - 2025-10-14 21:07:05 ===
Input file: /data/retarget/locomotion/raw/AMASS_SMPLXG/Eyes_Japan_Dataset/kanno/pose-16-handstand-kanno_stageii.npz
Output file: ../robot/ik_based/pkl/008671.pkl
Robot type: unitree_g1
Processing time: 253.67 seconds

STEP-BY-STEP TIMING:
  Step 1 - Load SMPLX:        9.80s
  Step 2 - Align FPS:         21.30s
  Step 3 - Init Retarget:     0.39s
  Step 4 - Init Visualization: 0.00s
  Step 5 - Process Frames:    220.56s (avg: 0.247s/frame)
  Step 6 - Convert Arrays:    0.00s
  Step 7 - Forward Kinematics: 0.89s
  Step 8 - Save Data:         0.02s
Status: SUCCESS
==================================================

=== SUCCESS LOG - 2025-10-14 21:07:47 ===
Input file: /data/retarget/locomotion/raw/AMASS_SMPLXG/Eyes_Japan_Dataset/kanno/pose-20-zombee-kanno_stageii.npz
Output file: ../robot/ik_based/pkl/008674.pkl
Robot type: unitree_g1
Processing time: 219.20 seconds

STEP-BY-STEP TIMING:
  Step 1 - Load SMPLX:        9.19s
  Step 2 - Align FPS:         25.39s
  Step 3 - Init Retarget:     0.45s
  Step 4 - Init Visualization: 0.00s
  Step 5 - Process Frames:    181.99s (avg: 0.204s/frame)
  Step 6 - Convert Arrays:    0.01s
  Step 7 - Forward Kinematics: 1.08s
  Step 8 - Save Data:         0.04s
Status: SUCCESS
==================================================

=== SUCCESS LOG - 2025-10-14 21:08:29 ===
Input file: /data/retarget/locomotion/raw/AMASS_SMPLXG/Eyes_Japan_Dataset/kanno/sitdown_standup-01-impolite-kanno_stageii.npz
Output file: ../robot/ik_based/pkl/008675.pkl
Robot type: unitree_g1
Processing time: 255.19 seconds

STEP-BY-STEP TIMING:
  Step 1 - Load SMPLX:        15.40s
  Step 2 - Align FPS:         24.89s
  Step 3 - Init Retarget:     0.45s
  Step 4 - Init Visualization: 0.00s
  Step 5 - Process Frames:    212.41s (avg: 0.215s/frame)
  Step 6 - Convert Arrays:    0.00s
  Step 7 - Forward Kinematics: 1.17s
  Step 8 - Save Data:         0.03s
Status: SUCCESS
==================================================

=== SUCCESS LOG - 2025-10-14 21:10:53 ===
Input file: /data/retarget/locomotion/raw/AMASS_SMPLXG/Eyes_Japan_Dataset/kanno/sitdown_standup-03-chair_back-kanno_stageii.npz
Output file: ../robot/ik_based/pkl/008676.pkl
Robot type: unitree_g1
Processing time: 302.72 seconds

STEP-BY-STEP TIMING:
  Step 1 - Load SMPLX:        9.55s
  Step 2 - Align FPS:         16.74s
  Step 3 - Init Retarget:     0.38s
  Step 4 - Init Visualization: 0.00s
  Step 5 - Process Frames:    274.01s (avg: 0.276s/frame)
  Step 6 - Convert Arrays:    0.01s
  Step 7 - Forward Kinematics: 0.95s
  Step 8 - Save Data:         0.03s
Status: SUCCESS
==================================================

=== SUCCESS LOG - 2025-10-14 21:11:41 ===
Input file: /data/retarget/locomotion/raw/AMASS_SMPLXG/Eyes_Japan_Dataset/kanno/sitdown_standup-13-applause-kanno_stageii.npz
Output file: ../robot/ik_based/pkl/008679.pkl
Robot type: unitree_g1
Processing time: 275.30 seconds

STEP-BY-STEP TIMING:
  Step 1 - Load SMPLX:        10.28s
  Step 2 - Align FPS:         19.02s
  Step 3 - Init Retarget:     0.36s
  Step 4 - Init Visualization: 0.00s
  Step 5 - Process Frames:    243.82s (avg: 0.245s/frame)
  Step 6 - Convert Arrays:    0.00s
  Step 7 - Forward Kinematics: 1.21s
  Step 8 - Save Data:         0.01s
Status: SUCCESS
==================================================

=== SUCCESS LOG - 2025-10-14 21:11:42 ===
Input file: /data/retarget/locomotion/raw/AMASS_SMPLXG/Eyes_Japan_Dataset/kanno/sitdown_standup-14-hold_chair-kanno_stageii.npz
Output file: ../robot/ik_based/pkl/008680.pkl
Robot type: unitree_g1
Processing time: 233.70 seconds

STEP-BY-STEP TIMING:
  Step 1 - Load SMPLX:        9.72s
  Step 2 - Align FPS:         18.25s
  Step 3 - Init Retarget:     0.40s
  Step 4 - Init Visualization: 0.00s
  Step 5 - Process Frames:    203.79s (avg: 0.204s/frame)
  Step 6 - Convert Arrays:    0.00s
  Step 7 - Forward Kinematics: 0.87s
  Step 8 - Save Data:         0.01s
Status: SUCCESS
==================================================

=== SUCCESS LOG - 2025-10-14 21:11:50 ===
Input file: /data/retarget/locomotion/raw/AMASS_SMPLXG/Eyes_Japan_Dataset/kanno/sitdown_standup-11-one_knee_drawn_up-kanno_stageii.npz
Output file: ../robot/ik_based/pkl/008678.pkl
Robot type: unitree_g1
Processing time: 308.09 seconds

STEP-BY-STEP TIMING:
  Step 1 - Load SMPLX:        9.97s
  Step 2 - Align FPS:         16.04s
  Step 3 - Init Retarget:     0.34s
  Step 4 - Init Visualization: 0.00s
  Step 5 - Process Frames:    280.54s (avg: 0.282s/frame)
  Step 6 - Convert Arrays:    0.01s
  Step 7 - Forward Kinematics: 0.56s
  Step 8 - Save Data:         0.02s
Status: SUCCESS
==================================================

=== SUCCESS LOG - 2025-10-14 21:11:58 ===
Input file: /data/retarget/locomotion/raw/AMASS_SMPLXG/Eyes_Japan_Dataset/kanno/throw_toss-04-both_hands_over_light-kanno_stageii.npz
Output file: ../robot/ik_based/pkl/008681.pkl
Robot type: unitree_g1
Processing time: 208.39 seconds

STEP-BY-STEP TIMING:
  Step 1 - Load SMPLX:        9.51s
  Step 2 - Align FPS:         15.26s
  Step 3 - Init Retarget:     0.41s
  Step 4 - Init Visualization: 0.00s
  Step 5 - Process Frames:    178.97s (avg: 0.199s/frame)
  Step 6 - Convert Arrays:    0.00s
  Step 7 - Forward Kinematics: 2.66s
  Step 8 - Save Data:         0.02s
Status: SUCCESS
==================================================

=== SUCCESS LOG - 2025-10-14 21:15:03 ===
Input file: /data/retarget/locomotion/raw/AMASS_SMPLXG/Eyes_Japan_Dataset/kanno/walk-03-sneak-kanno_stageii.npz
Output file: ../robot/ik_based/pkl/008685.pkl
Robot type: unitree_g1
Processing time: 248.95 seconds

STEP-BY-STEP TIMING:
  Step 1 - Load SMPLX:        9.65s
  Step 2 - Align FPS:         20.26s
  Step 3 - Init Retarget:     0.37s
  Step 4 - Init Visualization: 0.00s
  Step 5 - Process Frames:    216.85s (avg: 0.236s/frame)
  Step 6 - Convert Arrays:    0.00s
  Step 7 - Forward Kinematics: 0.75s
  Step 8 - Save Data:         0.05s
Status: SUCCESS
==================================================

=== SUCCESS LOG - 2025-10-14 21:16:12 ===
Input file: /data/retarget/locomotion/raw/AMASS_SMPLXG/Eyes_Japan_Dataset/kanno/walk-07-moonwalk-kanno_stageii.npz
Output file: ../robot/ik_based/pkl/008689.pkl
Robot type: unitree_g1
Processing time: 252.60 seconds

STEP-BY-STEP TIMING:
  Step 1 - Load SMPLX:        15.61s
  Step 2 - Align FPS:         22.31s
  Step 3 - Init Retarget:     0.36s
  Step 4 - Init Visualization: 0.00s
  Step 5 - Process Frames:    211.88s (avg: 0.210s/frame)
  Step 6 - Convert Arrays:    0.00s
  Step 7 - Forward Kinematics: 1.31s
  Step 8 - Save Data:         0.04s
Status: SUCCESS
==================================================

=== SUCCESS LOG - 2025-10-14 21:16:17 ===
Input file: /data/retarget/locomotion/raw/AMASS_SMPLXG/Eyes_Japan_Dataset/kanno/walk-05-backward-kanno_stageii.npz
Output file: ../robot/ik_based/pkl/008687.pkl
Robot type: unitree_g1
Processing time: 274.12 seconds

STEP-BY-STEP TIMING:
  Step 1 - Load SMPLX:        9.72s
  Step 2 - Align FPS:         22.64s
  Step 3 - Init Retarget:     1.31s
  Step 4 - Init Visualization: 0.00s
  Step 5 - Process Frames:    239.09s (avg: 0.229s/frame)
  Step 6 - Convert Arrays:    0.01s
  Step 7 - Forward Kinematics: 0.73s
  Step 8 - Save Data:         0.02s
Status: SUCCESS
==================================================

=== SUCCESS LOG - 2025-10-14 21:16:35 ===
Input file: /data/retarget/locomotion/raw/AMASS_SMPLXG/Eyes_Japan_Dataset/kanno/walk-06-catwalk-kanno_stageii.npz
Output file: ../robot/ik_based/pkl/008688.pkl
Robot type: unitree_g1
Processing time: 283.29 seconds

STEP-BY-STEP TIMING:
  Step 1 - Load SMPLX:        17.03s
  Step 2 - Align FPS:         24.53s
  Step 3 - Init Retarget:     0.50s
  Step 4 - Init Visualization: 0.00s
  Step 5 - Process Frames:    237.86s (avg: 0.238s/frame)
  Step 6 - Convert Arrays:    0.01s
  Step 7 - Forward Kinematics: 1.77s
  Step 8 - Save Data:         0.03s
Status: SUCCESS
==================================================

=== SUCCESS LOG - 2025-10-14 21:18:19 ===
Input file: /data/retarget/locomotion/raw/AMASS_SMPLXG/Eyes_Japan_Dataset/kanno/walk-04-fast-kanno_stageii.npz
Output file: ../robot/ik_based/pkl/008686.pkl
Robot type: unitree_g1
Processing time: 396.24 seconds

STEP-BY-STEP TIMING:
  Step 1 - Load SMPLX:        10.90s
  Step 2 - Align FPS:         21.36s
  Step 3 - Init Retarget:     0.83s
  Step 4 - Init Visualization: 0.02s
  Step 5 - Process Frames:    360.70s (avg: 0.358s/frame)
  Step 6 - Convert Arrays:    0.01s
  Step 7 - Forward Kinematics: 1.14s
  Step 8 - Save Data:         0.03s
Status: SUCCESS
==================================================

=== SUCCESS LOG - 2025-10-14 21:19:57 ===
Input file: /data/retarget/locomotion/raw/AMASS_SMPLXG/Eyes_Japan_Dataset/kanno/walk-11-baggage_on_the_head-kanno_stageii.npz
Output file: ../robot/ik_based/pkl/008692.pkl
Robot type: unitree_g1
Processing time: 292.36 seconds

STEP-BY-STEP TIMING:
  Step 1 - Load SMPLX:        10.17s
  Step 2 - Align FPS:         20.88s
  Step 3 - Init Retarget:     0.38s
  Step 4 - Init Visualization: 0.00s
  Step 5 - Process Frames:    258.68s (avg: 0.252s/frame)
  Step 6 - Convert Arrays:    0.01s
  Step 7 - Forward Kinematics: 1.25s
  Step 8 - Save Data:         0.03s
Status: SUCCESS
==================================================

=== SUCCESS LOG - 2025-10-14 21:20:29 ===
Input file: /data/retarget/locomotion/raw/AMASS_SMPLXG/Eyes_Japan_Dataset/kanno/walk-14-backpack-kanno_stageii.npz
Output file: ../robot/ik_based/pkl/008694.pkl
Robot type: unitree_g1
Processing time: 250.90 seconds

STEP-BY-STEP TIMING:
  Step 1 - Load SMPLX:        11.68s
  Step 2 - Align FPS:         16.46s
  Step 3 - Init Retarget:     0.48s
  Step 4 - Init Visualization: 0.00s
  Step 5 - Process Frames:    219.43s (avg: 0.218s/frame)
  Step 6 - Convert Arrays:    0.03s
  Step 7 - Forward Kinematics: 1.44s
  Step 8 - Save Data:         0.03s
Status: SUCCESS
==================================================

=== SUCCESS LOG - 2025-10-14 21:21:51 ===
Input file: /data/retarget/locomotion/raw/AMASS_SMPLXG/Eyes_Japan_Dataset/kanno/walk-15-pull-kanno_stageii.npz
Output file: ../robot/ik_based/pkl/008695.pkl
Robot type: unitree_g1
Processing time: 315.02 seconds

STEP-BY-STEP TIMING:
  Step 1 - Load SMPLX:        11.20s
  Step 2 - Align FPS:         15.06s
  Step 3 - Init Retarget:     0.45s
  Step 4 - Init Visualization: 0.00s
  Step 5 - Process Frames:    286.32s (avg: 0.314s/frame)
  Step 6 - Convert Arrays:    0.00s
  Step 7 - Forward Kinematics: 1.06s
  Step 8 - Save Data:         0.02s
Status: SUCCESS
==================================================

=== SUCCESS LOG - 2025-10-14 21:21:57 ===
Input file: /data/retarget/locomotion/raw/AMASS_SMPLXG/Eyes_Japan_Dataset/kanno/walk-13-baggage_on_the_shoulder-kanno_stageii.npz
Output file: ../robot/ik_based/pkl/008693.pkl
Robot type: unitree_g1
Processing time: 344.72 seconds

STEP-BY-STEP TIMING:
  Step 1 - Load SMPLX:        8.63s
  Step 2 - Align FPS:         21.07s
  Step 3 - Init Retarget:     0.34s
  Step 4 - Init Visualization: 0.00s
  Step 5 - Process Frames:    312.91s (avg: 0.313s/frame)
  Step 6 - Convert Arrays:    0.00s
  Step 7 - Forward Kinematics: 0.92s
  Step 8 - Save Data:         0.03s
Status: SUCCESS
==================================================

=== ERROR LOG - 2025-10-14 21:22:08 ===
Input file: /data/retarget/locomotion/raw/AMASS_SMPLXG/Eyes_Japan_Dataset/kawaguchi/female_stagei.npz
Output file: ../robot/ik_based/pkl/008704.pkl
Robot type: unitree_g1
Processing time: 9.75 seconds
Error message: 'pose_body is not a file in the archive'
Error type: KeyError
==================================================

=== SUCCESS LOG - 2025-10-14 21:22:11 ===
Input file: /data/retarget/locomotion/raw/AMASS_SMPLXG/Eyes_Japan_Dataset/kanno/walk-17-push_by_back-kanno_stageii.npz
Output file: ../robot/ik_based/pkl/008697.pkl
Robot type: unitree_g1
Processing time: 231.05 seconds

STEP-BY-STEP TIMING:
  Step 1 - Load SMPLX:        9.85s
  Step 2 - Align FPS:         15.96s
  Step 3 - Init Retarget:     0.50s
  Step 4 - Init Visualization: 0.00s
  Step 5 - Process Frames:    203.83s (avg: 0.202s/frame)
  Step 6 - Convert Arrays:    0.01s
  Step 7 - Forward Kinematics: 0.49s
  Step 8 - Save Data:         0.01s
Status: SUCCESS
==================================================

=== SUCCESS LOG - 2025-10-14 21:24:06 ===
Input file: /data/retarget/locomotion/raw/AMASS_SMPLXG/Eyes_Japan_Dataset/kanno/walk-26-exhausted-kanno_stageii.npz
Output file: ../robot/ik_based/pkl/008700.pkl
Robot type: unitree_g1
Processing time: 216.71 seconds

STEP-BY-STEP TIMING:
  Step 1 - Load SMPLX:        9.34s
  Step 2 - Align FPS:         19.43s
  Step 3 - Init Retarget:     0.41s
  Step 4 - Init Visualization: 0.00s
  Step 5 - Process Frames:    185.46s (avg: 0.185s/frame)
  Step 6 - Convert Arrays:    0.01s
  Step 7 - Forward Kinematics: 1.07s
  Step 8 - Save Data:         0.03s
Status: SUCCESS
==================================================

=== SUCCESS LOG - 2025-10-14 21:24:19 ===
Input file: /data/retarget/locomotion/raw/AMASS_SMPLXG/Eyes_Japan_Dataset/kawaguchi/gesture_etc-07-over_stretch-kawaguchi_stageii.npz
Output file: ../robot/ik_based/pkl/008706.pkl
Robot type: unitree_g1
Processing time: 127.04 seconds

STEP-BY-STEP TIMING:
  Step 1 - Load SMPLX:        11.29s
  Step 2 - Align FPS:         8.35s
  Step 3 - Init Retarget:     0.40s
  Step 4 - Init Visualization: 0.00s
  Step 5 - Process Frames:    104.11s (avg: 0.220s/frame)
  Step 6 - Convert Arrays:    0.01s
  Step 7 - Forward Kinematics: 0.83s
  Step 8 - Save Data:         0.07s
Status: SUCCESS
==================================================

=== SUCCESS LOG - 2025-10-14 21:24:48 ===
Input file: /data/retarget/locomotion/raw/AMASS_SMPLXG/Eyes_Japan_Dataset/kawaguchi/gesture_etc-04-set_4-kawaguchi_stageii.npz
Output file: ../robot/ik_based/pkl/008705.pkl
Robot type: unitree_g1
Processing time: 159.44 seconds

STEP-BY-STEP TIMING:
  Step 1 - Load SMPLX:        7.97s
  Step 2 - Align FPS:         6.88s
  Step 3 - Init Retarget:     0.60s
  Step 4 - Init Visualization: 0.00s
  Step 5 - Process Frames:    141.52s (avg: 0.319s/frame)
  Step 6 - Convert Arrays:    0.00s
  Step 7 - Forward Kinematics: 1.26s
  Step 8 - Save Data:         0.02s
Status: SUCCESS
==================================================

=== SUCCESS LOG - 2025-10-14 21:24:52 ===
Input file: /data/retarget/locomotion/raw/AMASS_SMPLXG/Eyes_Japan_Dataset/kanno/walk-21-one_leg-kanno_stageii.npz
Output file: ../robot/ik_based/pkl/008699.pkl
Robot type: unitree_g1
Processing time: 294.31 seconds

STEP-BY-STEP TIMING:
  Step 1 - Load SMPLX:        9.24s
  Step 2 - Align FPS:         23.46s
  Step 3 - Init Retarget:     0.35s
  Step 4 - Init Visualization: 0.00s
  Step 5 - Process Frames:    259.68s (avg: 0.257s/frame)
  Step 6 - Convert Arrays:    0.00s
  Step 7 - Forward Kinematics: 0.75s
  Step 8 - Save Data:         0.02s
Status: SUCCESS
==================================================

=== SUCCESS LOG - 2025-10-14 21:24:54 ===
Input file: /data/retarget/locomotion/raw/AMASS_SMPLXG/Eyes_Japan_Dataset/kawaguchi/accident-02-dodge_fast-kawaguchi_stageii.npz
Output file: ../robot/ik_based/pkl/008703.pkl
Robot type: unitree_g1
Processing time: 182.00 seconds

STEP-BY-STEP TIMING:
  Step 1 - Load SMPLX:        8.50s
  Step 2 - Align FPS:         12.43s
  Step 3 - Init Retarget:     0.36s
  Step 4 - Init Visualization: 0.00s
  Step 5 - Process Frames:    159.61s (avg: 0.207s/frame)
  Step 6 - Convert Arrays:    0.00s
  Step 7 - Forward Kinematics: 0.57s
  Step 8 - Save Data:         0.02s
Status: SUCCESS
==================================================

=== SUCCESS LOG - 2025-10-14 21:26:59 ===
Input file: /data/retarget/locomotion/raw/AMASS_SMPLXG/Eyes_Japan_Dataset/kawaguchi/gesture_etc-42-hung_over-kawaguchi_stageii.npz
Output file: ../robot/ik_based/pkl/008715.pkl
Robot type: unitree_g1
Processing time: 130.37 seconds

STEP-BY-STEP TIMING:
  Step 1 - Load SMPLX:        7.71s
  Step 2 - Align FPS:         17.08s
  Step 3 - Init Retarget:     0.32s
  Step 4 - Init Visualization: 0.00s
  Step 5 - Process Frames:    103.24s (avg: 0.192s/frame)
  Step 6 - Convert Arrays:    0.00s
  Step 7 - Forward Kinematics: 1.02s
  Step 8 - Save Data:         0.02s
Status: SUCCESS
==================================================

=== SUCCESS LOG - 2025-10-14 21:27:14 ===
Input file: /data/retarget/locomotion/raw/AMASS_SMPLXG/Eyes_Japan_Dataset/kawaguchi/gesture_etc-39-giant_baba-kawaguchi_stageii.npz
Output file: ../robot/ik_based/pkl/008714.pkl
Robot type: unitree_g1
Processing time: 173.99 seconds

STEP-BY-STEP TIMING:
  Step 1 - Load SMPLX:        11.28s
  Step 2 - Align FPS:         11.05s
  Step 3 - Init Retarget:     0.37s
  Step 4 - Init Visualization: 0.00s
  Step 5 - Process Frames:    148.41s (avg: 0.233s/frame)
  Step 6 - Convert Arrays:    0.00s
  Step 7 - Forward Kinematics: 1.57s
  Step 8 - Save Data:         0.03s
Status: SUCCESS
==================================================

=== SUCCESS LOG - 2025-10-14 21:27:28 ===
Input file: /data/retarget/locomotion/raw/AMASS_SMPLXG/Eyes_Japan_Dataset/kawaguchi/gesture_etc-51-cramp-kawaguchi_stageii.npz
Output file: ../robot/ik_based/pkl/008717.pkl
Robot type: unitree_g1
Processing time: 152.73 seconds

STEP-BY-STEP TIMING:
  Step 1 - Load SMPLX:        10.02s
  Step 2 - Align FPS:         9.36s
  Step 3 - Init Retarget:     0.40s
  Step 4 - Init Visualization: 0.00s
  Step 5 - Process Frames:    130.02s (avg: 0.275s/frame)
  Step 6 - Convert Arrays:    0.00s
  Step 7 - Forward Kinematics: 1.04s
  Step 8 - Save Data:         0.03s
Status: SUCCESS
==================================================

=== SUCCESS LOG - 2025-10-14 21:28:05 ===
Input file: /data/retarget/locomotion/raw/AMASS_SMPLXG/Eyes_Japan_Dataset/kawaguchi/gesture_etc-35-west_side-kawaguchi_stageii.npz
Output file: ../robot/ik_based/pkl/008713.pkl
Robot type: unitree_g1
Processing time: 237.21 seconds

STEP-BY-STEP TIMING:
  Step 1 - Load SMPLX:        9.04s
  Step 2 - Align FPS:         8.39s
  Step 3 - Init Retarget:     0.36s
  Step 4 - Init Visualization: 0.00s
  Step 5 - Process Frames:    217.50s (avg: 0.360s/frame)
  Step 6 - Convert Arrays:    0.00s
  Step 7 - Forward Kinematics: 0.84s
  Step 8 - Save Data:         0.04s
Status: SUCCESS
==================================================

=== SUCCESS LOG - 2025-10-14 21:28:18 ===
Input file: /data/retarget/locomotion/raw/AMASS_SMPLXG/Eyes_Japan_Dataset/kawaguchi/gesture_etc-50-syuriken-kawaguchi_stageii.npz
Output file: ../robot/ik_based/pkl/008716.pkl
Robot type: unitree_g1
Processing time: 205.72 seconds

STEP-BY-STEP TIMING:
  Step 1 - Load SMPLX:        7.92s
  Step 2 - Align FPS:         21.59s
  Step 3 - Init Retarget:     0.46s
  Step 4 - Init Visualization: 0.00s
  Step 5 - Process Frames:    172.27s (avg: 0.209s/frame)
  Step 6 - Convert Arrays:    0.00s
  Step 7 - Forward Kinematics: 1.69s
  Step 8 - Save Data:         0.05s
Status: SUCCESS
==================================================

=== SUCCESS LOG - 2025-10-14 21:29:39 ===
Input file: /data/retarget/locomotion/raw/AMASS_SMPLXG/Eyes_Japan_Dataset/kawaguchi/greeting-03-election-kawaguchi_stageii.npz
Output file: ../robot/ik_based/pkl/008720.pkl
Robot type: unitree_g1
Processing time: 159.54 seconds

STEP-BY-STEP TIMING:
  Step 1 - Load SMPLX:        10.29s
  Step 2 - Align FPS:         12.59s
  Step 3 - Init Retarget:     0.30s
  Step 4 - Init Visualization: 0.00s
  Step 5 - Process Frames:    133.81s (avg: 0.212s/frame)
  Step 6 - Convert Arrays:    0.00s
  Step 7 - Forward Kinematics: 1.25s
  Step 8 - Save Data:         0.04s
Status: SUCCESS
==================================================

=== SUCCESS LOG - 2025-10-14 21:30:13 ===
Input file: /data/retarget/locomotion/raw/AMASS_SMPLXG/Eyes_Japan_Dataset/kawaguchi/greeting-08-shakehands-kawaguchi_stageii.npz
Output file: ../robot/ik_based/pkl/008722.pkl
Robot type: unitree_g1
Processing time: 164.38 seconds

STEP-BY-STEP TIMING:
  Step 1 - Load SMPLX:        11.38s
  Step 2 - Align FPS:         15.57s
  Step 3 - Init Retarget:     0.41s
  Step 4 - Init Visualization: 0.00s
  Step 5 - Process Frames:    134.69s (avg: 0.197s/frame)
  Step 6 - Convert Arrays:    0.01s
  Step 7 - Forward Kinematics: 1.11s
  Step 8 - Save Data:         0.03s
Status: SUCCESS
==================================================

=== SUCCESS LOG - 2025-10-14 21:30:23 ===
Input file: /data/retarget/locomotion/raw/AMASS_SMPLXG/Eyes_Japan_Dataset/kawaguchi/greeting-09-certificate-kawaguchi_stageii.npz
Output file: ../robot/ik_based/pkl/008723.pkl
Robot type: unitree_g1
Processing time: 137.84 seconds

STEP-BY-STEP TIMING:
  Step 1 - Load SMPLX:        9.18s
  Step 2 - Align FPS:         10.67s
  Step 3 - Init Retarget:     0.38s
  Step 4 - Init Visualization: 0.00s
  Step 5 - Process Frames:    116.16s (avg: 0.199s/frame)
  Step 6 - Convert Arrays:    0.00s
  Step 7 - Forward Kinematics: 0.77s
[...]
Output file: ../robot/ik_based/pkl/008736.pkl
Robot type: unitree_g1
Processing time: 135.00 seconds

STEP-BY-STEP TIMING:
  Step 1 - Load SMPLX:        9.24s
  Step 2 - Align FPS:         14.06s
  Step 3 - Init Retarget:     0.39s
  Step 4 - Init Visualization: 0.00s
  Step 5 - Process Frames:    110.49s (avg: 0.181s/frame)
  Step 6 - Convert Arrays:    0.00s
  Step 7 - Forward Kinematics: 0.62s
  Step 8 - Save Data:         0.00s
Status: SUCCESS
==================================================

=== SUCCESS LOG - 2025-10-14 21:36:13 ===
Input file: /data/retarget/locomotion/raw/AMASS_SMPLXG/Eyes_Japan_Dataset/kawaguchi/jump-05-rope_normal_run-kawaguchi_stageii.npz
Output file: ../robot/ik_based/pkl/008726.pkl
Robot type: unitree_g1
Processing time: 393.88 seconds

STEP-BY-STEP TIMING:
  Step 1 - Load SMPLX:        10.23s
  Step 2 - Align FPS:         17.43s
  Step 3 - Init Retarget:     0.41s
  Step 4 - Init Visualization: 0.00s
  Step 5 - Process Frames:    364.29s (avg: 0.408s/frame)
  Step 6 - Convert Arrays:    0.01s
  Step 7 - Forward Kinematics: 0.75s
  Step 8 - Save Data:         0.02s
Status: SUCCESS
==================================================

=== SUCCESS LOG - 2025-10-14 21:37:12 ===
Input file: /data/retarget/locomotion/raw/AMASS_SMPLXG/Eyes_Japan_Dataset/kawaguchi/pose-17-one_leg-kawaguchi_stageii.npz
Output file: ../robot/ik_based/pkl/008738.pkl
Robot type: unitree_g1
Processing time: 149.98 seconds

STEP-BY-STEP TIMING:
  Step 1 - Load SMPLX:        9.85s
  Step 2 - Align FPS:         14.98s
  Step 3 - Init Retarget:     0.40s
  Step 4 - Init Visualization: 0.00s
  Step 5 - Process Frames:    122.76s (avg: 0.173s/frame)
  Step 6 - Convert Arrays:    0.00s
  Step 7 - Forward Kinematics: 0.98s
  Step 8 - Save Data:         0.01s
Status: SUCCESS
==================================================

=== SUCCESS LOG - 2025-10-14 21:37:15 ===
Input file: /data/retarget/locomotion/raw/AMASS_SMPLXG/Eyes_Japan_Dataset/kawaguchi/jump-08-rope_backward-kawaguchi_stageii.npz
Output file: ../robot/ik_based/pkl/008727.pkl
Robot type: unitree_g1
Processing time: 421.69 seconds

STEP-BY-STEP TIMING:
  Step 1 - Load SMPLX:        9.96s
  Step 2 - Align FPS:         16.81s
  Step 3 - Init Retarget:     0.48s
  Step 4 - Init Visualization: 0.00s
  Step 5 - Process Frames:    393.01s (avg: 0.441s/frame)
  Step 6 - Convert Arrays:    0.00s
  Step 7 - Forward Kinematics: 0.69s
  Step 8 - Save Data:         0.01s
Status: SUCCESS
==================================================

=== SUCCESS LOG - 2025-10-14 21:38:25 ===
Input file: /data/retarget/locomotion/raw/AMASS_SMPLXG/Eyes_Japan_Dataset/kawaguchi/sitdown_standup-10-observe-kawaguchi_stageii.npz
Output file: ../robot/ik_based/pkl/008740.pkl
Robot type: unitree_g1
Processing time: 175.98 seconds

STEP-BY-STEP TIMING:
  Step 1 - Load SMPLX:        10.25s
  Step 2 - Align FPS:         14.17s
  Step 3 - Init Retarget:     0.36s
  Step 4 - Init Visualization: 0.00s
  Step 5 - Process Frames:    149.41s (avg: 0.212s/frame)
  Step 6 - Convert Arrays:    0.00s
  Step 7 - Forward Kinematics: 0.95s
  Step 8 - Save Data:         0.02s
Status: SUCCESS
==================================================

=== SUCCESS LOG - 2025-10-14 21:38:25 ===
Input file: /data/retarget/locomotion/raw/AMASS_SMPLXG/Eyes_Japan_Dataset/kawaguchi/throw_toss-04-both_hands_over_light-kawaguchi_stageii.npz
Output file: ../robot/ik_based/pkl/008742.pkl
Robot type: unitree_g1
Processing time: 136.53 seconds

STEP-BY-STEP TIMING:
  Step 1 - Load SMPLX:        8.12s
  Step 2 - Align FPS:         8.76s
  Step 3 - Init Retarget:     0.35s
  Step 4 - Init Visualization: 0.00s
  Step 5 - Process Frames:    117.52s (avg: 0.247s/frame)
  Step 6 - Convert Arrays:    0.01s
  Step 7 - Forward Kinematics: 0.81s
  Step 8 - Save Data:         0.01s
Status: SUCCESS
==================================================

=== SUCCESS LOG - 2025-10-14 21:38:47 ===
Input file: /data/retarget/locomotion/raw/AMASS_SMPLXG/Eyes_Japan_Dataset/kawaguchi/throw_toss-05-both_hands_over_heavy-kawaguchi_stageii.npz
Output file: ../robot/ik_based/pkl/008743.pkl
Robot type: unitree_g1
Processing time: 152.57 seconds

STEP-BY-STEP TIMING:
  Step 1 - Load SMPLX:        10.17s
  Step 2 - Align FPS:         13.66s
  Step 3 - Init Retarget:     0.43s
  Step 4 - Init Visualization: 0.00s
  Step 5 - Process Frames:    127.28s (avg: 0.216s/frame)
  Step 6 - Convert Arrays:    0.00s
  Step 7 - Forward Kinematics: 0.54s
  Step 8 - Save Data:         0.02s
Status: SUCCESS
==================================================

=== SUCCESS LOG - 2025-10-14 21:39:57 ===
Input file: /data/retarget/locomotion/raw/AMASS_SMPLXG/Eyes_Japan_Dataset/kawaguchi/turn-01-call-kawaguchi_stageii.npz
Output file: ../robot/ik_based/pkl/008746.pkl
Robot type: unitree_g1
Processing time: 160.46 seconds

STEP-BY-STEP TIMING:
  Step 1 - Load SMPLX:        11.09s
  Step 2 - Align FPS:         14.46s
  Step 3 - Init Retarget:     0.47s
  Step 4 - Init Visualization: 0.00s
  Step 5 - Process Frames:    133.52s (avg: 0.204s/frame)
  Step 6 - Convert Arrays:    0.00s
  Step 7 - Forward Kinematics: 0.44s
  Step 8 - Save Data:         0.05s
Status: SUCCESS
==================================================

=== SUCCESS LOG - 2025-10-14 21:40:36 ===
Input file: /data/retarget/locomotion/raw/AMASS_SMPLXG/Eyes_Japan_Dataset/kawaguchi/throw_toss-17-pass_to_back_light-kawaguchi_stageii.npz
Output file: ../robot/ik_based/pkl/008745.pkl
Robot type: unitree_g1
Processing time: 203.34 seconds

STEP-BY-STEP TIMING:
  Step 1 - Load SMPLX:        8.26s
  Step 2 - Align FPS:         12.22s
  Step 3 - Init Retarget:     0.70s
  Step 4 - Init Visualization: 0.00s
  Step 5 - Process Frames:    181.34s (avg: 0.304s/frame)
  Step 6 - Convert Arrays:    0.00s
  Step 7 - Forward Kinematics: 0.54s
  Step 8 - Save Data:         0.04s
Status: SUCCESS
==================================================

=== SUCCESS LOG - 2025-10-14 21:42:29 ===
Input file: /data/retarget/locomotion/raw/AMASS_SMPLXG/Eyes_Japan_Dataset/kawaguchi/turn-03-look_at-kawaguchi_stageii.npz
Output file: ../robot/ik_based/pkl/008748.pkl
Robot type: unitree_g1
Processing time: 243.90 seconds

STEP-BY-STEP TIMING:
  Step 1 - Load SMPLX:        8.05s
  Step 2 - Align FPS:         15.99s
  Step 3 - Init Retarget:     0.52s
  Step 4 - Init Visualization: 0.00s
  Step 5 - Process Frames:    217.99s (avg: 0.324s/frame)
  Step 6 - Convert Arrays:    0.00s
  Step 7 - Forward Kinematics: 0.86s
  Step 8 - Save Data:         0.00s
Status: SUCCESS
==================================================

=== SUCCESS LOG - 2025-10-14 21:43:56 ===
Input file: /data/retarget/locomotion/raw/AMASS_SMPLXG/Eyes_Japan_Dataset/kawaguchi/turn-05-turn-kawaguchi_stageii.npz
Output file: ../robot/ik_based/pkl/008749.pkl
Robot type: unitree_g1
Processing time: 330.10 seconds

STEP-BY-STEP TIMING:
  Step 1 - Load SMPLX:        7.95s
  Step 2 - Align FPS:         17.30s
  Step 3 - Init Retarget:     0.35s
  Step 4 - Init Visualization: 0.00s
  Step 5 - Process Frames:    303.64s (avg: 0.413s/frame)
  Step 6 - Convert Arrays:    0.05s
  Step 7 - Forward Kinematics: 0.45s
  Step 8 - Save Data:         0.04s
Status: SUCCESS
==================================================

=== SUCCESS LOG - 2025-10-14 21:48:35 ===
Input file: /data/retarget/locomotion/raw/AMASS_SMPLXG/Eyes_Japan_Dataset/kudo/gesture_etc-11-hold_arms-kudo_stageii.npz
Output file: ../robot/ik_based/pkl/008751.pkl
Robot type: unitree_g1
Processing time: 517.03 seconds

STEP-BY-STEP TIMING:
  Step 1 - Load SMPLX:        13.76s
  Step 2 - Align FPS:         94.87s
  Step 3 - Init Retarget:     1.18s
  Step 4 - Init Visualization: 0.27s
  Step 5 - Process Frames:    404.86s (avg: 0.409s/frame)
  Step 6 - Convert Arrays:    0.01s
  Step 7 - Forward Kinematics: 1.22s
  Step 8 - Save Data:         0.02s
Status: SUCCESS
==================================================

=== SUCCESS LOG - 2025-10-14 21:49:20 ===
Input file: /data/retarget/locomotion/raw/AMASS_SMPLXG/Eyes_Japan_Dataset/kudo/gesture_etc-13-juggling_imaginary-kudo_stageii.npz
Output file: ../robot/ik_based/pkl/008753.pkl
Robot type: unitree_g1
Processing time: 409.12 seconds

STEP-BY-STEP TIMING:
  Step 1 - Load SMPLX:        15.47s
  Step 2 - Align FPS:         28.02s
  Step 3 - Init Retarget:     0.99s
  Step 4 - Init Visualization: 0.00s
  Step 5 - Process Frames:    363.66s (avg: 0.367s/frame)
  Step 6 - Convert Arrays:    0.00s
  Step 7 - Forward Kinematics: 0.60s
  Step 8 - Save Data:         0.05s
Status: SUCCESS
==================================================

=== SUCCESS LOG - 2025-10-14 21:51:43 ===
Input file: /data/retarget/locomotion/raw/AMASS_SMPLXG/Eyes_Japan_Dataset/kudo/gesture_etc-10-snip_nail-kudo_stageii.npz
Output file: ../robot/ik_based/pkl/008750.pkl
Robot type: unitree_g1
Processing time: 775.67 seconds

STEP-BY-STEP TIMING:
  Step 1 - Load SMPLX:        12.57s
  Step 2 - Align FPS:         34.60s
  Step 3 - Init Retarget:     0.32s
  Step 4 - Init Visualization: 0.00s
  Step 5 - Process Frames:    726.92s (avg: 0.394s/frame)
  Step 6 - Convert Arrays:    0.18s
  Step 7 - Forward Kinematics: 0.53s
  Step 8 - Save Data:         0.17s
Status: SUCCESS
==================================================

=== SUCCESS LOG - 2025-10-14 21:52:27 ===
Input file: /data/retarget/locomotion/raw/AMASS_SMPLXG/Eyes_Japan_Dataset/kudo/gesture_etc-12-juggling_real-kudo_stageii.npz
Output file: ../robot/ik_based/pkl/008752.pkl
Robot type: unitree_g1
Processing time: 709.50 seconds

STEP-BY-STEP TIMING:
  Step 1 - Load SMPLX:        21.11s
  Step 2 - Align FPS:         94.07s
  Step 3 - Init Retarget:     0.48s
  Step 4 - Init Visualization: 0.00s
  Step 5 - Process Frames:    593.16s (avg: 0.599s/frame)
  Step 6 - Convert Arrays:    0.00s
  Step 7 - Forward Kinematics: 0.25s
  Step 8 - Save Data:         0.15s
Status: SUCCESS
==================================================

=== SUCCESS LOG - 2025-10-14 21:52:57 ===
Input file: /data/retarget/locomotion/raw/AMASS_SMPLXG/Eyes_Japan_Dataset/kudo/gesture_etc-14-apologize-kudo_stageii.npz
Output file: ../robot/ik_based/pkl/008754.pkl
Robot type: unitree_g1
Processing time: 539.99 seconds

STEP-BY-STEP TIMING:
  Step 1 - Load SMPLX:        18.45s
  Step 2 - Align FPS:         63.16s
  Step 3 - Init Retarget:     0.62s
  Step 4 - Init Visualization: 0.01s
  Step 5 - Process Frames:    454.91s (avg: 0.460s/frame)
  Step 6 - Convert Arrays:    0.01s
  Step 7 - Forward Kinematics: 1.85s
  Step 8 - Save Data:         0.04s
Status: SUCCESS
==================================================

=== SUCCESS LOG - 2025-10-14 21:56:28 ===
Input file: /data/retarget/locomotion/raw/AMASS_SMPLXG/Eyes_Japan_Dataset/kudo/gesture_etc-15-whip_-kudo_stageii.npz
Output file: ../robot/ik_based/pkl/008755.pkl
Robot type: unitree_g1
Processing time: 471.26 seconds

STEP-BY-STEP TIMING:
  Step 1 - Load SMPLX:        13.61s
  Step 2 - Align FPS:         73.98s
  Step 3 - Init Retarget:     0.63s
  Step 4 - Init Visualization: 0.00s
  Step 5 - Process Frames:    381.96s (avg: 0.386s/frame)
  Step 6 - Convert Arrays:    0.00s
  Step 7 - Forward Kinematics: 0.54s
  Step 8 - Save Data:         0.01s
Status: SUCCESS
==================================================

=== SUCCESS LOG - 2025-10-14 21:56:37 ===
Input file: /data/retarget/locomotion/raw/AMASS_SMPLXG/Eyes_Japan_Dataset/kudo/gesture_etc-16-dryer-kudo_stageii.npz
Output file: ../robot/ik_based/pkl/008756.pkl
Robot type: unitree_g1
Processing time: 434.81 seconds

STEP-BY-STEP TIMING:
  Step 1 - Load SMPLX:        18.84s
  Step 2 - Align FPS:         46.23s
  Step 3 - Init Retarget:     0.39s
  Step 4 - Init Visualization: 0.00s
  Step 5 - Process Frames:    368.37s (avg: 0.372s/frame)
  Step 6 - Convert Arrays:    0.00s
  Step 7 - Forward Kinematics: 0.48s
  Step 8 - Save Data:         0.06s
Status: SUCCESS
==================================================

=== SUCCESS LOG - 2025-10-14 21:58:01 ===
Input file: /data/retarget/locomotion/raw/AMASS_SMPLXG/Eyes_Japan_Dataset/kudo/gesture_etc-18-eat-kudo_stageii.npz
Output file: ../robot/ik_based/pkl/008757.pkl
Robot type: unitree_g1
Processing time: 374.77 seconds

STEP-BY-STEP TIMING:
  Step 1 - Load SMPLX:        20.77s
  Step 2 - Align FPS:         62.38s
  Step 3 - Init Retarget:     1.23s
  Step 4 - Init Visualization: 0.00s
  Step 5 - Process Frames:    289.79s (avg: 0.293s/frame)
  Step 6 - Convert Arrays:    0.00s
  Step 7 - Forward Kinematics: 0.17s
  Step 8 - Save Data:         0.09s
Status: SUCCESS
==================================================

=== SUCCESS LOG - 2025-10-14 22:00:15 ===
Input file: /data/retarget/locomotion/raw/AMASS_SMPLXG/Eyes_Japan_Dataset/kudo/gesture_etc-19-fold_legs-kudo_stageii.npz
Output file: ../robot/ik_based/pkl/008758.pkl
Robot type: unitree_g1
Processing time: 466.18 seconds

STEP-BY-STEP TIMING:
  Step 1 - Load SMPLX:        13.17s
  Step 2 - Align FPS:         34.33s
  Step 3 - Init Retarget:     0.71s
  Step 4 - Init Visualization: 0.00s
  Step 5 - Process Frames:    417.20s (avg: 0.421s/frame)
  Step 6 - Convert Arrays:    0.02s
  Step 7 - Forward Kinematics: 0.40s
  Step 8 - Save Data:         0.01s
Status: SUCCESS
==================================================

=== SUCCESS LOG - 2025-10-14 22:00:18 ===
Input file: /data/retarget/locomotion/raw/AMASS_SMPLXG/Eyes_Japan_Dataset/kudo/gesture_etc-21-clapping-kudo_stageii.npz
Output file: ../robot/ik_based/pkl/008759.pkl
Robot type: unitree_g1
Processing time: 439.17 seconds

STEP-BY-STEP TIMING:
  Step 1 - Load SMPLX:        13.85s
  Step 2 - Align FPS:         71.78s
  Step 3 - Init Retarget:     0.87s
  Step 4 - Init Visualization: 0.00s
  Step 5 - Process Frames:    351.40s (avg: 0.355s/frame)
  Step 6 - Convert Arrays:    0.01s
  Step 7 - Forward Kinematics: 0.80s
  Step 8 - Save Data:         0.01s
Status: SUCCESS
==================================================

=== SUCCESS LOG - 2025-10-14 22:03:31 ===
Input file: /data/retarget/locomotion/raw/AMASS_SMPLXG/Eyes_Japan_Dataset/kudo/gesture_etc-23-mobile_call-kudo_stageii.npz
Output file: ../robot/ik_based/pkl/008761.pkl
Robot type: unitree_g1
Processing time: 412.41 seconds

STEP-BY-STEP TIMING:
  Step 1 - Load SMPLX:        19.18s
  Step 2 - Align FPS:         55.62s
  Step 3 - Init Retarget:     0.95s
  Step 4 - Init Visualization: 0.00s
  Step 5 - Process Frames:    335.85s (avg: 0.339s/frame)
  Step 6 - Convert Arrays:    0.11s
  Step 7 - Forward Kinematics: 0.28s
  Step 8 - Save Data:         0.12s
Status: SUCCESS
==================================================

=== SUCCESS LOG - 2025-10-14 22:03:47 ===
Input file: /data/retarget/locomotion/raw/AMASS_SMPLXG/Eyes_Japan_Dataset/kudo/gesture_etc-22-mobile_receive-kudo_stageii.npz
Output file: ../robot/ik_based/pkl/008760.pkl
Robot type: unitree_g1
Processing time: 436.77 seconds

STEP-BY-STEP TIMING:
  Step 1 - Load SMPLX:        16.43s
  Step 2 - Align FPS:         58.06s
  Step 3 - Init Retarget:     0.77s
  Step 4 - Init Visualization: 0.00s
  Step 5 - Process Frames:    360.94s (avg: 0.365s/frame)
  Step 6 - Convert Arrays:    0.00s
  Step 7 - Forward Kinematics: 0.03s
  Step 8 - Save Data:         0.06s
Status: SUCCESS
==================================================

=== SUCCESS LOG - 2025-10-14 22:05:48 ===
Input file: /data/retarget/locomotion/raw/AMASS_SMPLXG/Eyes_Japan_Dataset/kudo/gesture_etc-25-magic-kudo_stageii.npz
Output file: ../robot/ik_based/pkl/008762.pkl
Robot type: unitree_g1
Processing time: 465.85 seconds

STEP-BY-STEP TIMING:
  Step 1 - Load SMPLX:        15.47s
  Step 2 - Align FPS:         68.17s
  Step 3 - Init Retarget:     1.45s
  Step 4 - Init Visualization: 0.09s
  Step 5 - Process Frames:    379.86s (avg: 0.389s/frame)
  Step 6 - Convert Arrays:    0.00s
  Step 7 - Forward Kinematics: 0.36s
  Step 8 - Save Data:         0.06s
Status: SUCCESS
==================================================

=== SUCCESS LOG - 2025-10-14 22:07:07 ===
Input file: /data/retarget/locomotion/raw/AMASS_SMPLXG/Eyes_Japan_Dataset/kudo/gesture_etc-26-hit_mosquito-kudo_stageii.npz
Output file: ../robot/ik_based/pkl/008763.pkl
Robot type: unitree_g1
Processing time: 411.05 seconds

STEP-BY-STEP TIMING:
  Step 1 - Load SMPLX:        12.79s
  Step 2 - Align FPS:         82.00s
  Step 3 - Init Retarget:     1.31s
  Step 4 - Init Visualization: 0.00s
  Step 5 - Process Frames:    313.13s (avg: 0.316s/frame)
  Step 6 - Convert Arrays:    0.01s
  Step 7 - Forward Kinematics: 1.18s
  Step 8 - Save Data:         0.05s
Status: SUCCESS
==================================================

=== SUCCESS LOG - 2025-10-14 22:08:36 ===
Input file: /data/retarget/locomotion/raw/AMASS_SMPLXG/Eyes_Japan_Dataset/kudo/gesture_etc-27-hit_cockroach-kudo_stageii.npz
Output file: ../robot/ik_based/pkl/008764.pkl
Robot type: unitree_g1
Processing time: 497.13 seconds

STEP-BY-STEP TIMING:
  Step 1 - Load SMPLX:        11.40s
  Step 2 - Align FPS:         82.28s
  Step 3 - Init Retarget:     0.79s
  Step 4 - Init Visualization: 0.09s
  Step 5 - Process Frames:    401.59s (avg: 0.406s/frame)
  Step 6 - Convert Arrays:    0.01s
  Step 7 - Forward Kinematics: 0.44s
  Step 8 - Save Data:         0.03s
Status: SUCCESS
==================================================

=== SUCCESS LOG - 2025-10-14 22:11:49 ===
Input file: /data/retarget/locomotion/raw/AMASS_SMPLXG/Eyes_Japan_Dataset/kudo/gesture_etc-30-fxxk-kudo_stageii.npz
Output file: ../robot/ik_based/pkl/008766.pkl
Robot type: unitree_g1
Processing time: 480.68 seconds

STEP-BY-STEP TIMING:
  Step 1 - Load SMPLX:        17.22s
  Step 2 - Align FPS:         50.80s
  Step 3 - Init Retarget:     0.70s
  Step 4 - Init Visualization: 0.00s
  Step 5 - Process Frames:    411.11s (avg: 0.415s/frame)
  Step 6 - Convert Arrays:    0.06s
  Step 7 - Forward Kinematics: 0.38s
  Step 8 - Save Data:         0.03s
Status: SUCCESS
==================================================

=== SUCCESS LOG - 2025-10-14 22:12:26 ===
Input file: /data/retarget/locomotion/raw/AMASS_SMPLXG/Eyes_Japan_Dataset/kudo/gesture_etc-29-pantomime-kudo_stageii.npz
Output file: ../robot/ik_based/pkl/008765.pkl
Robot type: unitree_g1
Processing time: 532.70 seconds

STEP-BY-STEP TIMING:
  Step 1 - Load SMPLX:        17.54s
  Step 2 - Align FPS:         58.89s
  Step 3 - Init Retarget:     0.82s
  Step 4 - Init Visualization: 0.00s
  Step 5 - Process Frames:    454.80s (avg: 0.459s/frame)
  Step 6 - Convert Arrays:    0.00s
  Step 7 - Forward Kinematics: 0.41s
  Step 8 - Save Data:         0.05s
Status: SUCCESS
==================================================

=== SUCCESS LOG - 2025-10-14 22:12:53 ===
Input file: /data/retarget/locomotion/raw/AMASS_SMPLXG/Eyes_Japan_Dataset/kudo/gesture_etc-32-no-kudo_stageii.npz
Output file: ../robot/ik_based/pkl/008767.pkl
Robot type: unitree_g1
Processing time: 423.64 seconds

STEP-BY-STEP TIMING:
  Step 1 - Load SMPLX:        13.70s
  Step 2 - Align FPS:         52.43s
  Step 3 - Init Retarget:     0.36s
  Step 4 - Init Visualization: 0.00s
  Step 5 - Process Frames:    356.54s (avg: 0.360s/frame)
  Step 6 - Convert Arrays:    0.01s
  Step 7 - Forward Kinematics: 0.28s
  Step 8 - Save Data:         0.11s
Status: SUCCESS
==================================================

=== SUCCESS LOG - 2025-10-14 22:15:19 ===
Input file: /data/retarget/locomotion/raw/AMASS_SMPLXG/Eyes_Japan_Dataset/kudo/gesture_etc-33-watch_here-kudo_stageii.npz
Output file: ../robot/ik_based/pkl/008768.pkl
Robot type: unitree_g1
Processing time: 490.54 seconds

STEP-BY-STEP TIMING:
  Step 1 - Load SMPLX:        11.50s
  Step 2 - Align FPS:         52.04s
  Step 3 - Init Retarget:     0.84s
  Step 4 - Init Visualization: 0.00s
  Step 5 - Process Frames:    424.97s (avg: 0.429s/frame)
  Step 6 - Convert Arrays:    0.02s
  Step 7 - Forward Kinematics: 0.47s
  Step 8 - Save Data:         0.09s
Status: SUCCESS
==================================================
