
=== SKIPPED (ALREADY EXISTS) - 2025-10-14 22:51:34 ===
File index: 017600
Input file: /data/retarget/locomotion/raw/AMASS_SMPLXG/WEIZMANN/70/Normal_StraightLong(24)_stageii.npz
Output file: ../robot/ik_based/pkl/017600.pkl
Status: SKIPPED (ALREADY EXISTS) - NO PROCESSING PERFORMED
==================================================

=== SKIPPED (ALREADY EXISTS) - 2025-10-14 22:51:34 ===
File index: 017601
Input file: /data/retarget/locomotion/raw/AMASS_SMPLXG/WEIZMANN/70/Normal_StraightLong(25)_stageii.npz
Output file: ../robot/ik_based/pkl/017601.pkl
Status: SKIPPED (ALREADY EXISTS) - NO PROCESSING PERFORMED
==================================================

=== SKIPPED (ALREADY EXISTS) - 2025-10-14 22:51:34 ===
File index: 017602
Input file: /data/retarget/locomotion/raw/AMASS_SMPLXG/WEIZMANN/70/Normal_StraightLong(26)_stageii.npz
Output file: ../robot/ik_based/pkl/017602.pkl
Status: SKIPPED (ALREADY EXISTS) - NO PROCESSING PERFORMED
==================================================

=== SKIPPED (ALREADY EXISTS) - 2025-10-14 22:51:34 ===
File index: 017603
Input file: /data/retarget/locomotion/raw/AMASS_SMPLXG/WEIZMANN/70/Normal_StraightLong(27)_stageii.npz
Output file: ../robot/ik_based/pkl/017603.pkl
Status: SKIPPED (ALREADY EXISTS) - NO PROCESSING PERFORMED
==================================================

=== SKIPPED (ALREADY EXISTS) - 2025-10-14 22:51:34 ===
File index: 017604
Input file: /data/retarget/locomotion/raw/AMASS_SMPLXG/WEIZMANN/70/Normal_StraightLong(28)_stageii.npz
Output file: ../robot/ik_based/pkl/017604.pkl
Status: SKIPPED (ALREADY EXISTS) - NO PROCESSING PERFORMED
==================================================

=== SKIPPED (ALREADY EXISTS) - 2025-10-14 22:51:34 ===
File index: 017605
Input file: /data/retarget/locomotion/raw/AMASS_SMPLXG/WEIZMANN/70/Normal_StraightLong(29)_stageii.npz
Output file: ../robot/ik_based/pkl/017605.pkl
Status: SKIPPED (ALREADY EXISTS) - NO PROCESSING PERFORMED
==================================================

=== SKIPPED (ALREADY EXISTS) - 2025-10-14 22:51:34 ===
File index: 017606
Input file: /data/retarget/locomotion/raw/AMASS_SMPLXG/WEIZMANN/70/Normal_StraightLong(3)_stageii.npz
Output file: ../robot/ik_based/pkl/017606.pkl
Status: SKIPPED (ALREADY EXISTS) - NO PROCESSING PERFORMED
==================================================

=== SKIPPED (ALREADY EXISTS) - 2025-10-14 22:51:34 ===
File index: 017607
Input file: /data/retarget/locomotion/raw/AMASS_SMPLXG/WEIZMANN/70/Normal_StraightLong(30)_stageii.npz
Output file: ../robot/ik_based/pkl/017607.pkl
Status: SKIPPED (ALREADY EXISTS) - NO PROCESSING PERFORMED
==================================================

=== SKIPPED (ALREADY EXISTS) - 2025-10-14 22:51:34 ===
File index: 017608
Input file: /data/retarget/locomotion/raw/AMASS_SMPLXG/WEIZMANN/70/Normal_StraightLong(31)_stageii.npz
Output file: ../robot/ik_based/pkl/017608.pkl
Status: SKIPPED (ALREADY EXISTS) - NO PROCESSING PERFORMED
==================================================

=== SKIPPED (ALREADY EXISTS) - 2025-10-14 22:51:34 ===
File index: 017609
Input file: /data/retarget/locomotion/raw/AMASS_SMPLXG/WEIZMANN/70/Normal_StraightLong(32)_stageii.npz
Output file: ../robot/ik_based/pkl/017609.pkl
Status: SKIPPED (ALREADY EXISTS) - NO PROCESSING PERFORMED
==================================================

=== SKIPPED (ALREADY EXISTS) - 2025-10-14 22:51:34 ===
File index: 017610
Input file: /data/retarget/locomotion/raw/AMASS_SMPLXG/WEIZMANN/70/Normal_StraightLong(33)_stageii.npz
Output file: ../robot/ik_based/pkl/017610.pkl
Status: SKIPPED (ALREADY EXISTS) - NO PROCESSING PERFORMED
==================================================

=== SKIPPED (ALREADY EXISTS) - 2025-10-14 22:51:34 ===
File index: 017611
Input file: /data/retarget/locomotion/raw/AMASS_SMPLXG/WEIZMANN/70/Normal_StraightLong(34)_stageii.npz
Output file: ../robot/ik_based/pkl/017611.pkl
Status: SKIPPED (ALREADY EXISTS) - NO PROCESSING PERFORMED
==================================================

=== SKIPPED (ALREADY EXISTS) - 2025-10-14 22:51:34 ===
File index: 017612
Input file: /data/retarget/locomotion/raw/AMASS_SMPLXG/WEIZMANN/70/Normal_StraightLong(35)_stageii.npz
Output file: ../robot/ik_based/pkl/017612.pkl
Status: SKIPPED (ALREADY EXISTS) - NO PROCESSING PERFORMED
==================================================

=== SKIPPED (ALREADY EXISTS) - 2025-10-14 22:51:34 ===
File index: 017613
Input file: /data/retarget/locomotion/raw/AMASS_SMPLXG/WEIZMANN/70/Normal_StraightLong(36)_stageii.npz
Output file: ../robot/ik_based/pkl/017613.pkl
Status: SKIPPED (ALREADY EXISTS) - NO PROCESSING PERFORMED
==================================================

=== SKIPPED (ALREADY EXISTS) - 2025-10-14 22:51:34 ===
File index: 017614
Input file: /data/retarget/locomotion/raw/AMASS_SMPLXG/WEIZMANN/70/Normal_StraightLong(37)_stageii.npz
Output file: ../robot/ik_based/pkl/017614.pkl
Status: SKIPPED (ALREADY EXISTS) - NO PROCESSING PERFORMED
==================================================

=== SKIPPED (ALREADY EXISTS) - 2025-10-14 22:51:34 ===
File index: 017615
Input file: /data/retarget/locomotion/raw/AMASS_SMPLXG/WEIZMANN/70/Normal_StraightLong(38)_stageii.npz
Output file: ../robot/ik_based/pkl/017615.pkl
Status: SKIPPED (ALREADY EXISTS) - NO PROCESSING PERFORMED
==================================================

=== SKIPPED (ALREADY EXISTS) - 2025-10-14 22:51:34 ===
File index: 017616
Input file: /data/retarget/locomotion/raw/AMASS_SMPLXG/WEIZMANN/70/Normal_StraightLong(39)_stageii.npz
Output file: ../robot/ik_based/pkl/017616.pkl
Status: SKIPPED (ALREADY EXISTS) - NO PROCESSING PERFORMED
==================================================

=== SKIPPED (ALREADY EXISTS) - 2025-10-14 22:51:34 ===
File index: 017617
Input file: /data/retarget/locomotion/raw/AMASS_SMPLXG/WEIZMANN/70/Normal_StraightLong(4)_stageii.npz
Output file: ../robot/ik_based/pkl/017617.pkl
Status: SKIPPED (ALREADY EXISTS) - NO PROCESSING PERFORMED
==================================================

=== SKIPPED (ALREADY EXISTS) - 2025-10-14 22:51:34 ===
File index: 017618
Input file: /data/retarget/locomotion/raw/AMASS_SMPLXG/WEIZMANN/70/Normal_StraightLong(40)_stageii.npz
Output file: ../robot/ik_based/pkl/017618.pkl
Status: SKIPPED (ALREADY EXISTS) - NO PROCESSING PERFORMED
==================================================

=== SKIPPED (ALREADY EXISTS) - 2025-10-14 22:51:34 ===
File index: 017619
Input file: /data/retarget/locomotion/raw/AMASS_SMPLXG/WEIZMANN/70/Normal_StraightLong(41)_stageii.npz
Output file: ../robot/ik_based/pkl/017619.pkl
Status: SKIPPED (ALREADY EXISTS) - NO PROCESSING PERFORMED
==================================================

=== SKIPPED (ALREADY EXISTS) - 2025-10-14 22:51:34 ===
File index: 017620
Input file: /data/retarget/locomotion/raw/AMASS_SMPLXG/WEIZMANN/70/Normal_StraightLong(42)_stageii.npz
Output file: ../robot/ik_based/pkl/017620.pkl
Status: SKIPPED (ALREADY EXISTS) - NO PROCESSING PERFORMED
==================================================

=== SKIPPED (ALREADY EXISTS) - 2025-10-14 22:51:34 ===
File index: 017621
Input file: /data/retarget/locomotion/raw/AMASS_SMPLXG/WEIZMANN/70/Normal_StraightLong(43)_stageii.npz
Output file: ../robot/ik_based/pkl/017621.pkl
Status: SKIPPED (ALREADY EXISTS) - NO PROCESSING PERFORMED
==================================================

=== SKIPPED (ALREADY EXISTS) - 2025-10-14 22:51:34 ===
File index: 017622
Input file: /data/retarget/locomotion/raw/AMASS_SMPLXG/WEIZMANN/70/Normal_StraightLong(44)_stageii.npz
Output file: ../robot/ik_based/pkl/017622.pkl
Status: SKIPPED (ALREADY EXISTS) - NO PROCESSING PERFORMED
==================================================

=== SKIPPED (ALREADY EXISTS) - 2025-10-14 22:51:34 ===
File index: 017623
Input file: /data/retarget/locomotion/raw/AMASS_SMPLXG/WEIZMANN/70/Normal_StraightLong(45)_stageii.npz
Output file: ../robot/ik_based/pkl/017623.pkl
Status: SKIPPED (ALREADY EXISTS) - NO PROCESSING PERFORMED
==================================================

=== SKIPPED (ALREADY EXISTS) - 2025-10-14 22:51:34 ===
File index: 017624
Input file: /data/retarget/locomotion/raw/AMASS_SMPLXG/WEIZMANN/70/Normal_StraightLong(46)_stageii.npz
Output file: ../robot/ik_based/pkl/017624.pkl
Status: SKIPPED (ALREADY EXISTS) - NO PROCESSING PERFORMED
==================================================

=== SKIPPED (ALREADY EXISTS) - 2025-10-14 22:51:34 ===
File index: 017625
Input file: /data/retarget/locomotion/raw/AMASS_SMPLXG/WEIZMANN/70/Normal_StraightLong(47)_stageii.npz
Output file: ../robot/ik_based/pkl/017625.pkl
Status: SKIPPED (ALREADY EXISTS) - NO PROCESSING PERFORMED
==================================================

=== SKIPPED (ALREADY EXISTS) - 2025-10-14 22:51:34 ===
File index: 017626
Input file: /data/retarget/locomotion/raw/AMASS_SMPLXG/WEIZMANN/70/Normal_StraightLong(48)_stageii.npz
Output file: ../robot/ik_based/pkl/017626.pkl
Status: SKIPPED (ALREADY EXISTS) - NO PROCESSING PERFORMED
==================================================

=== SKIPPED (ALREADY EXISTS) - 2025-10-14 22:51:34 ===
File index: 017627
Input file: /data/retarget/locomotion/raw/AMASS_SMPLXG/WEIZMANN/70/Normal_StraightLong(49)_stageii.npz
Output file: ../robot/ik_based/pkl/017627.pkl
Status: SKIPPED (ALREADY EXISTS) - NO PROCESSING PERFORMED
==================================================

=== SKIPPED (ALREADY EXISTS) - 2025-10-14 22:51:34 ===
File index: 017628
Input file: /data/retarget/locomotion/raw/AMASS_SMPLXG/WEIZMANN/70/Normal_StraightLong(5)_stageii.npz
Output file: ../robot/ik_based/pkl/017628.pkl
Status: SKIPPED (ALREADY EXISTS) - NO PROCESSING PERFORMED
==================================================

=== SKIPPED (ALREADY EXISTS) - 2025-10-14 22:51:34 ===
File index: 017629
Input file: /data/retarget/locomotion/raw/AMASS_SMPLXG/WEIZMANN/70/Normal_StraightLong(50)_stageii.npz
Output file: ../robot/ik_based/pkl/017629.pkl
Status: SKIPPED (ALREADY EXISTS) - NO PROCESSING PERFORMED
==================================================

=== SKIPPED (ALREADY EXISTS) - 2025-10-14 22:51:34 ===
File index: 017630
Input file: /data/retarget/locomotion/raw/AMASS_SMPLXG/WEIZMANN/70/Normal_StraightLong(6)_stageii.npz
Output file: ../robot/ik_based/pkl/017630.pkl
Status: SKIPPED (ALREADY EXISTS) - NO PROCESSING PERFORMED
==================================================

=== SKIPPED (ALREADY EXISTS) - 2025-10-14 22:51:34 ===
File index: 017631
Input file: /data/retarget/locomotion/raw/AMASS_SMPLXG/WEIZMANN/70/Normal_StraightLong(7)_stageii.npz
Output file: ../robot/ik_based/pkl/017631.pkl
Status: SKIPPED (ALREADY EXISTS) - NO PROCESSING PERFORMED
==================================================

=== SKIPPED (ALREADY EXISTS) - 2025-10-14 22:51:34 ===
File index: 017632
Input file: /data/retarget/locomotion/raw/AMASS_SMPLXG/WEIZMANN/70/Normal_StraightLong(8)_stageii.npz
Output file: ../robot/ik_based/pkl/017632.pkl
Status: SKIPPED (ALREADY EXISTS) - NO PROCESSING PERFORMED
==================================================

=== SKIPPED (ALREADY EXISTS) - 2025-10-14 22:51:34 ===
File index: 017633
Input file: /data/retarget/locomotion/raw/AMASS_SMPLXG/WEIZMANN/70/Normal_StraightLong(9)_stageii.npz
Output file: ../robot/ik_based/pkl/017633.pkl
Status: SKIPPED (ALREADY EXISTS) - NO PROCESSING PERFORMED
==================================================

=== SKIPPED (ALREADY EXISTS) - 2025-10-14 22:51:34 ===
File index: 017634
Input file: /data/retarget/locomotion/raw/AMASS_SMPLXG/WEIZMANN/70/Normal_StraightShort(1)_1_stageii.npz
Output file: ../robot/ik_based/pkl/017634.pkl
Status: SKIPPED (ALREADY EXISTS) - NO PROCESSING PERFORMED
==================================================

=== SKIPPED (ALREADY EXISTS) - 2025-10-14 22:51:34 ===
File index: 017635
Input file: /data/retarget/locomotion/raw/AMASS_SMPLXG/WEIZMANN/70/Normal_StraightShort(2)_1_stageii.npz
Output file: ../robot/ik_based/pkl/017635.pkl
Status: SKIPPED (ALREADY EXISTS) - NO PROCESSING PERFORMED
==================================================

=== SKIPPED (ALREADY EXISTS) - 2025-10-14 22:51:34 ===
File index: 017636
Input file: /data/retarget/locomotion/raw/AMASS_SMPLXG/WEIZMANN/70/Normal_StraightShort(3)_1_stageii.npz
Output file: ../robot/ik_based/pkl/017636.pkl
Status: SKIPPED (ALREADY EXISTS) - NO PROCESSING PERFORMED
==================================================

=== SKIPPED (ALREADY EXISTS) - 2025-10-14 22:51:34 ===
File index: 017637
Input file: /data/retarget/locomotion/raw/AMASS_SMPLXG/WEIZMANN/70/Slow_AFig8CCW(1)_stageii.npz
Output file: ../robot/ik_based/pkl/017637.pkl
Status: SKIPPED (ALREADY EXISTS) - NO PROCESSING PERFORMED
==================================================

=== SKIPPED (ALREADY EXISTS) - 2025-10-14 22:51:34 ===
File index: 017638
Input file: /data/retarget/locomotion/raw/AMASS_SMPLXG/WEIZMANN/70/Slow_AFig8CCW(2)_stageii.npz
Output file: ../robot/ik_based/pkl/017638.pkl
Status: SKIPPED (ALREADY EXISTS) - NO PROCESSING PERFORMED
==================================================

=== SKIPPED (ALREADY EXISTS) - 2025-10-14 22:51:34 ===
File index: 017639
Input file: /data/retarget/locomotion/raw/AMASS_SMPLXG/WEIZMANN/70/Slow_AFig8CCW(3)_stageii.npz
Output file: ../robot/ik_based/pkl/017639.pkl
Status: SKIPPED (ALREADY EXISTS) - NO PROCESSING PERFORMED
==================================================

=== SKIPPED (ALREADY EXISTS) - 2025-10-14 22:51:34 ===
File index: 017640
Input file: /data/retarget/locomotion/raw/AMASS_SMPLXG/WEIZMANN/70/Slow_AFig8CW(1)_stageii.npz
Output file: ../robot/ik_based/pkl/017640.pkl
Status: SKIPPED (ALREADY EXISTS) - NO PROCESSING PERFORMED
==================================================

=== SKIPPED (ALREADY EXISTS) - 2025-10-14 22:51:34 ===
File index: 017641
Input file: /data/retarget/locomotion/raw/AMASS_SMPLXG/WEIZMANN/70/Slow_AFig8CW(2)_stageii.npz
Output file: ../robot/ik_based/pkl/017641.pkl
Status: SKIPPED (ALREADY EXISTS) - NO PROCESSING PERFORMED
==================================================

=== SKIPPED (ALREADY EXISTS) - 2025-10-14 22:51:34 ===
File index: 017642
Input file: /data/retarget/locomotion/raw/AMASS_SMPLXG/WEIZMANN/70/Slow_AFig8CW(3)_stageii.npz
Output file: ../robot/ik_based/pkl/017642.pkl
Status: SKIPPED (ALREADY EXISTS) - NO PROCESSING PERFORMED
==================================================

=== SKIPPED (ALREADY EXISTS) - 2025-10-14 22:51:34 ===
File index: 017643
Input file: /data/retarget/locomotion/raw/AMASS_SMPLXG/WEIZMANN/70/Slow_CircleCCW(1)_stageii.npz
Output file: ../robot/ik_based/pkl/017643.pkl
Status: SKIPPED (ALREADY EXISTS) - NO PROCESSING PERFORMED
==================================================

=== SKIPPED (ALREADY EXISTS) - 2025-10-14 22:51:34 ===
File index: 017644
Input file: /data/retarget/locomotion/raw/AMASS_SMPLXG/WEIZMANN/70/Slow_CircleCCW(2)_stageii.npz
Output file: ../robot/ik_based/pkl/017644.pkl
Status: SKIPPED (ALREADY EXISTS) - NO PROCESSING PERFORMED
==================================================

=== SKIPPED (ALREADY EXISTS) - 2025-10-14 22:51:34 ===
File index: 017645
Input file: /data/retarget/locomotion/raw/AMASS_SMPLXG/WEIZMANN/70/Slow_CircleCCW(3)_stageii.npz
Output file: ../robot/ik_based/pkl/017645.pkl
Status: SKIPPED (ALREADY EXISTS) - NO PROCESSING PERFORMED
==================================================

=== SKIPPED (ALREADY EXISTS) - 2025-10-14 22:51:34 ===
File index: 017646
Input file: /data/retarget/locomotion/raw/AMASS_SMPLXG/WEIZMANN/70/Slow_CircleCW(1)_stageii.npz
Output file: ../robot/ik_based/pkl/017646.pkl
Status: SKIPPED (ALREADY EXISTS) - NO PROCESSING PERFORMED
==================================================

=== SKIPPED (ALREADY EXISTS) - 2025-10-14 22:51:34 ===
File index: 017647
Input file: /data/retarget/locomotion/raw/AMASS_SMPLXG/WEIZMANN/70/Slow_CircleCW(2)_stageii.npz
Output file: ../robot/ik_based/pkl/017647.pkl
Status: SKIPPED (ALREADY EXISTS) - NO PROCESSING PERFORMED
==================================================

=== SKIPPED (ALREADY EXISTS) - 2025-10-14 22:51:34 ===
File index: 017648
Input file: /data/retarget/locomotion/raw/AMASS_SMPLXG/WEIZMANN/70/Slow_CircleCW(3)_stageii.npz
Output file: ../robot/ik_based/pkl/017648.pkl
Status: SKIPPED (ALREADY EXISTS) - NO PROCESSING PERFORMED
==================================================

=== SKIPPED (ALREADY EXISTS) - 2025-10-14 22:51:34 ===
File index: 017649
Input file: /data/retarget/locomotion/raw/AMASS_SMPLXG/WEIZMANN/70/Slow_EllipseCCW(1)_stageii.npz
Output file: ../robot/ik_based/pkl/017649.pkl
Status: SKIPPED (ALREADY EXISTS) - NO PROCESSING PERFORMED
==================================================

=== SKIPPED (ALREADY EXISTS) - 2025-10-14 22:51:34 ===
File index: 017650
Input file: /data/retarget/locomotion/raw/AMASS_SMPLXG/WEIZMANN/70/Slow_EllipseCCW(2)_stageii.npz
Output file: ../robot/ik_based/pkl/017650.pkl
Status: SKIPPED (ALREADY EXISTS) - NO PROCESSING PERFORMED
==================================================

=== SKIPPED (ALREADY EXISTS) - 2025-10-14 22:51:34 ===
File index: 017651
Input file: /data/retarget/locomotion/raw/AMASS_SMPLXG/WEIZMANN/70/Slow_EllipseCCW(3)_stageii.npz
Output file: ../robot/ik_based/pkl/017651.pkl
Status: SKIPPED (ALREADY EXISTS) - NO PROCESSING PERFORMED
==================================================

=== SKIPPED (ALREADY EXISTS) - 2025-10-14 22:51:34 ===
File index: 017652
Input file: /data/retarget/locomotion/raw/AMASS_SMPLXG/WEIZMANN/70/Slow_EllipseCW(1)_stageii.npz
Output file: ../robot/ik_based/pkl/017652.pkl
Status: SKIPPED (ALREADY EXISTS) - NO PROCESSING PERFORMED
==================================================

=== SKIPPED (ALREADY EXISTS) - 2025-10-14 22:51:34 ===
File index: 017653
Input file: /data/retarget/locomotion/raw/AMASS_SMPLXG/WEIZMANN/70/Slow_EllipseCW(2)_stageii.npz
Output file: ../robot/ik_based/pkl/017653.pkl
Status: SKIPPED (ALREADY EXISTS) - NO PROCESSING PERFORMED
==================================================

=== SKIPPED (ALREADY EXISTS) - 2025-10-14 22:51:34 ===
File index: 017654
Input file: /data/retarget/locomotion/raw/AMASS_SMPLXG/WEIZMANN/70/Slow_EllipseCW(3)_stageii.npz
Output file: ../robot/ik_based/pkl/017654.pkl
Status: SKIPPED (ALREADY EXISTS) - NO PROCESSING PERFORMED
==================================================

=== SKIPPED (ALREADY EXISTS) - 2025-10-14 22:51:34 ===
File index: 017655
Input file: /data/retarget/locomotion/raw/AMASS_SMPLXG/WEIZMANN/70/Slow_Fig8(1)_stageii.npz
Output file: ../robot/ik_based/pkl/017655.pkl
Status: SKIPPED (ALREADY EXISTS) - NO PROCESSING PERFORMED
==================================================

=== SKIPPED (ALREADY EXISTS) - 2025-10-14 22:51:34 ===
File index: 017656
Input file: /data/retarget/locomotion/raw/AMASS_SMPLXG/WEIZMANN/70/Slow_Fig8(2)_stageii.npz
Output file: ../robot/ik_based/pkl/017656.pkl
Status: SKIPPED (ALREADY EXISTS) - NO PROCESSING PERFORMED
==================================================

=== SKIPPED (ALREADY EXISTS) - 2025-10-14 22:51:34 ===
File index: 017657
Input file: /data/retarget/locomotion/raw/AMASS_SMPLXG/WEIZMANN/70/Slow_Fig8(3)_stageii.npz
Output file: ../robot/ik_based/pkl/017657.pkl
Status: SKIPPED (ALREADY EXISTS) - NO PROCESSING PERFORMED
==================================================

=== SKIPPED (ALREADY EXISTS) - 2025-10-14 22:51:34 ===
File index: 017658
Input file: /data/retarget/locomotion/raw/AMASS_SMPLXG/WEIZMANN/70/Slow_SShapeLR(1)_stageii.npz
Output file: ../robot/ik_based/pkl/017658.pkl
Status: SKIPPED (ALREADY EXISTS) - NO PROCESSING PERFORMED
==================================================

=== SKIPPED (ALREADY EXISTS) - 2025-10-14 22:51:34 ===
File index: 017659
Input file: /data/retarget/locomotion/raw/AMASS_SMPLXG/WEIZMANN/70/Slow_SShapeLR(10)_stageii.npz
Output file: ../robot/ik_based/pkl/017659.pkl
Status: SKIPPED (ALREADY EXISTS) - NO PROCESSING PERFORMED
==================================================

=== SKIPPED (ALREADY EXISTS) - 2025-10-14 22:51:34 ===
File index: 017660
Input file: /data/retarget/locomotion/raw/AMASS_SMPLXG/WEIZMANN/70/Slow_SShapeLR(11)_stageii.npz
Output file: ../robot/ik_based/pkl/017660.pkl
Status: SKIPPED (ALREADY EXISTS) - NO PROCESSING PERFORMED
==================================================

=== SKIPPED (ALREADY EXISTS) - 2025-10-14 22:51:34 ===
File index: 017661
Input file: /data/retarget/locomotion/raw/AMASS_SMPLXG/WEIZMANN/70/Slow_SShapeLR(12)_stageii.npz
Output file: ../robot/ik_based/pkl/017661.pkl
Status: SKIPPED (ALREADY EXISTS) - NO PROCESSING PERFORMED
==================================================

=== SKIPPED (ALREADY EXISTS) - 2025-10-14 22:51:34 ===
File index: 017662
Input file: /data/retarget/locomotion/raw/AMASS_SMPLXG/WEIZMANN/70/Slow_SShapeLR(13)_stageii.npz
Output file: ../robot/ik_based/pkl/017662.pkl
Status: SKIPPED (ALREADY EXISTS) - NO PROCESSING PERFORMED
==================================================

=== SKIPPED (ALREADY EXISTS) - 2025-10-14 22:51:34 ===
File index: 017663
Input file: /data/retarget/locomotion/raw/AMASS_SMPLXG/WEIZMANN/70/Slow_SShapeLR(14)_stageii.npz
Output file: ../robot/ik_based/pkl/017663.pkl
Status: SKIPPED (ALREADY EXISTS) - NO PROCESSING PERFORMED
==================================================

=== SKIPPED (ALREADY EXISTS) - 2025-10-14 22:51:34 ===
File index: 017664
Input file: /data/retarget/locomotion/raw/AMASS_SMPLXG/WEIZMANN/70/Slow_SShapeLR(15)_stageii.npz
Output file: ../robot/ik_based/pkl/017664.pkl
Status: SKIPPED (ALREADY EXISTS) - NO PROCESSING PERFORMED
==================================================

=== SKIPPED (ALREADY EXISTS) - 2025-10-14 22:51:34 ===
File index: 017665
Input file: /data/retarget/locomotion/raw/AMASS_SMPLXG/WEIZMANN/70/Slow_SShapeLR(16)_stageii.npz
Output file: ../robot/ik_based/pkl/017665.pkl
Status: SKIPPED (ALREADY EXISTS) - NO PROCESSING PERFORMED
==================================================

=== SKIPPED (ALREADY EXISTS) - 2025-10-14 22:51:34 ===
File index: 017666
Input file: /data/retarget/locomotion/raw/AMASS_SMPLXG/WEIZMANN/70/Slow_SShapeLR(17)_stageii.npz
Output file: ../robot/ik_based/pkl/017666.pkl
Status: SKIPPED (ALREADY EXISTS) - NO PROCESSING PERFORMED
==================================================

=== SKIPPED (ALREADY EXISTS) - 2025-10-14 22:51:34 ===
File index: 017667
Input file: /data/retarget/locomotion/raw/AMASS_SMPLXG/WEIZMANN/70/Slow_SShapeLR(18)_stageii.npz
Output file: ../robot/ik_based/pkl/017667.pkl
Status: SKIPPED (ALREADY EXISTS) - NO PROCESSING PERFORMED
==================================================

=== SKIPPED (ALREADY EXISTS) - 2025-10-14 22:51:34 ===
File index: 017668
Input file: /data/retarget/locomotion/raw/AMASS_SMPLXG/WEIZMANN/70/Slow_SShapeLR(19)_stageii.npz
Output file: ../robot/ik_based/pkl/017668.pkl
Status: SKIPPED (ALREADY EXISTS) - NO PROCESSING PERFORMED
==================================================

=== SKIPPED (ALREADY EXISTS) - 2025-10-14 22:51:34 ===
File index: 017669
Input file: /data/retarget/locomotion/raw/AMASS_SMPLXG/WEIZMANN/70/Slow_SShapeLR(2)_stageii.npz
Output file: ../robot/ik_based/pkl/017669.pkl
Status: SKIPPED (ALREADY EXISTS) - NO PROCESSING PERFORMED
==================================================

=== SKIPPED (ALREADY EXISTS) - 2025-10-14 22:51:34 ===
File index: 017670
Input file: /data/retarget/locomotion/raw/AMASS_SMPLXG/WEIZMANN/70/Slow_SShapeLR(20)_stageii.npz
Output file: ../robot/ik_based/pkl/017670.pkl
Status: SKIPPED (ALREADY EXISTS) - NO PROCESSING PERFORMED
==================================================

=== SKIPPED (ALREADY EXISTS) - 2025-10-14 22:51:34 ===
File index: 017671
Input file: /data/retarget/locomotion/raw/AMASS_SMPLXG/WEIZMANN/70/Slow_SShapeLR(21)_stageii.npz
Output file: ../robot/ik_based/pkl/017671.pkl
Status: SKIPPED (ALREADY EXISTS) - NO PROCESSING PERFORMED
==================================================

=== SKIPPED (ALREADY EXISTS) - 2025-10-14 22:51:34 ===
File index: 017672
Input file: /data/retarget/locomotion/raw/AMASS_SMPLXG/WEIZMANN/70/Slow_SShapeLR(22)_stageii.npz
Output file: ../robot/ik_based/pkl/017672.pkl
Status: SKIPPED (ALREADY EXISTS) - NO PROCESSING PERFORMED
==================================================

=== SKIPPED (ALREADY EXISTS) - 2025-10-14 22:51:34 ===
File index: 017673
Input file: /data/retarget/locomotion/raw/AMASS_SMPLXG/WEIZMANN/70/Slow_SShapeLR(23)_stageii.npz
Output file: ../robot/ik_based/pkl/017673.pkl
Status: SKIPPED (ALREADY EXISTS) - NO PROCESSING PERFORMED
==================================================

=== SKIPPED (ALREADY EXISTS) - 2025-10-14 22:51:34 ===
File index: 017674
Input file: /data/retarget/locomotion/raw/AMASS_SMPLXG/WEIZMANN/70/Slow_SShapeLR(3)_stageii.npz
Output file: ../robot/ik_based/pkl/017674.pkl
Status: SKIPPED (ALREADY EXISTS) - NO PROCESSING PERFORMED
==================================================

=== SKIPPED (ALREADY EXISTS) - 2025-10-14 22:51:34 ===
File index: 017675
Input file: /data/retarget/locomotion/raw/AMASS_SMPLXG/WEIZMANN/70/Slow_SShapeLR(4)_stageii.npz
Output file: ../robot/ik_based/pkl/017675.pkl
Status: SKIPPED (ALREADY EXISTS) - NO PROCESSING PERFORMED
==================================================

=== SKIPPED (ALREADY EXISTS) - 2025-10-14 22:51:34 ===
File index: 017676
Input file: /data/retarget/locomotion/raw/AMASS_SMPLXG/WEIZMANN/70/Slow_SShapeLR(5)_stageii.npz
Output file: ../robot/ik_based/pkl/017676.pkl
Status: SKIPPED (ALREADY EXISTS) - NO PROCESSING PERFORMED
==================================================

=== SKIPPED (ALREADY EXISTS) - 2025-10-14 22:51:34 ===
File index: 017677
Input file: /data/retarget/locomotion/raw/AMASS_SMPLXG/WEIZMANN/70/Slow_SShapeLR(6)_stageii.npz
Output file: ../robot/ik_based/pkl/017677.pkl
Status: SKIPPED (ALREADY EXISTS) - NO PROCESSING PERFORMED
==================================================

=== SKIPPED (ALREADY EXISTS) - 2025-10-14 22:51:34 ===
File index: 017678
Input file: /data/retarget/locomotion/raw/AMASS_SMPLXG/WEIZMANN/70/Slow_SShapeLR(7)_stageii.npz
Output file: ../robot/ik_based/pkl/017678.pkl
Status: SKIPPED (ALREADY EXISTS) - NO PROCESSING PERFORMED
==================================================

=== SKIPPED (ALREADY EXISTS) - 2025-10-14 22:51:34 ===
File index: 017679
Input file: /data/retarget/locomotion/raw/AMASS_SMPLXG/WEIZMANN/70/Slow_SShapeLR(8)_stageii.npz
Output file: ../robot/ik_based/pkl/017679.pkl
Status: SKIPPED (ALREADY EXISTS) - NO PROCESSING PERFORMED
==================================================

=== SKIPPED (ALREADY EXISTS) - 2025-10-14 22:51:34 ===
File index: 017680
Input file: /data/retarget/locomotion/raw/AMASS_SMPLXG/WEIZMANN/70/Slow_SShapeLR(9)_stageii.npz
Output file: ../robot/ik_based/pkl/017680.pkl
Status: SKIPPED (ALREADY EXISTS) - NO PROCESSING PERFORMED
==================================================

=== SKIPPED (ALREADY EXISTS) - 2025-10-14 22:51:34 ===
File index: 017681
Input file: /data/retarget/locomotion/raw/AMASS_SMPLXG/WEIZMANN/70/Slow_SShapeRL(1)_stageii.npz
Output file: ../robot/ik_based/pkl/017681.pkl
Status: SKIPPED (ALREADY EXISTS) - NO PROCESSING PERFORMED
==================================================

=== SKIPPED (ALREADY EXISTS) - 2025-10-14 22:51:34 ===
File index: 017682
Input file: /data/retarget/locomotion/raw/AMASS_SMPLXG/WEIZMANN/70/Slow_SShapeRL(10)_stageii.npz
Output file: ../robot/ik_based/pkl/017682.pkl
Status: SKIPPED (ALREADY EXISTS) - NO PROCESSING PERFORMED
==================================================

=== SKIPPED (ALREADY EXISTS) - 2025-10-14 22:51:34 ===
File index: 017683
Input file: /data/retarget/locomotion/raw/AMASS_SMPLXG/WEIZMANN/70/Slow_SShapeRL(11)_stageii.npz
Output file: ../robot/ik_based/pkl/017683.pkl
Status: SKIPPED (ALREADY EXISTS) - NO PROCESSING PERFORMED
==================================================

=== SKIPPED (ALREADY EXISTS) - 2025-10-14 22:51:34 ===
File index: 017684
Input file: /data/retarget/locomotion/raw/AMASS_SMPLXG/WEIZMANN/70/Slow_SShapeRL(12)_stageii.npz
Output file: ../robot/ik_based/pkl/017684.pkl
Status: SKIPPED (ALREADY EXISTS) - NO PROCESSING PERFORMED
==================================================

=== SKIPPED (ALREADY EXISTS) - 2025-10-14 22:51:34 ===
File index: 017685
Input file: /data/retarget/locomotion/raw/AMASS_SMPLXG/WEIZMANN/70/Slow_SShapeRL(13)_stageii.npz
Output file: ../robot/ik_based/pkl/017685.pkl
Status: SKIPPED (ALREADY EXISTS) - NO PROCESSING PERFORMED
==================================================

=== SKIPPED (ALREADY EXISTS) - 2025-10-14 22:51:34 ===
File index: 017686
Input file: /data/retarget/locomotion/raw/AMASS_SMPLXG/WEIZMANN/70/Slow_SShapeRL(14)_stageii.npz
Output file: ../robot/ik_based/pkl/017686.pkl
Status: SKIPPED (ALREADY EXISTS) - NO PROCESSING PERFORMED
==================================================

=== SKIPPED (ALREADY EXISTS) - 2025-10-14 22:51:34 ===
File index: 017687
Input file: /data/retarget/locomotion/raw/AMASS_SMPLXG/WEIZMANN/70/Slow_SShapeRL(15)_stageii.npz
Output file: ../robot/ik_based/pkl/017687.pkl
Status: SKIPPED (ALREADY EXISTS) - NO PROCESSING PERFORMED
==================================================

=== SKIPPED (ALREADY EXISTS) - 2025-10-14 22:51:34 ===
File index: 017688
Input file: /data/retarget/locomotion/raw/AMASS_SMPLXG/WEIZMANN/70/Slow_SShapeRL(16)_stageii.npz
Output file: ../robot/ik_based/pkl/017688.pkl
Status: SKIPPED (ALREADY EXISTS) - NO PROCESSING PERFORMED
==================================================

=== SKIPPED (ALREADY EXISTS) - 2025-10-14 22:51:34 ===
File index: 017689
Input file: /data/retarget/locomotion/raw/AMASS_SMPLXG/WEIZMANN/70/Slow_SShapeRL(17)_stageii.npz
Output file: ../robot/ik_based/pkl/017689.pkl
Status: SKIPPED (ALREADY EXISTS) - NO PROCESSING PERFORMED
==================================================

=== SKIPPED (ALREADY EXISTS) - 2025-10-14 22:51:34 ===
File index: 017690
Input file: /data/retarget/locomotion/raw/AMASS_SMPLXG/WEIZMANN/70/Slow_SShapeRL(18)_stageii.npz
Output file: ../robot/ik_based/pkl/017690.pkl
Status: SKIPPED (ALREADY EXISTS) - NO PROCESSING PERFORMED
==================================================

=== SKIPPED (ALREADY EXISTS) - 2025-10-14 22:51:35 ===
File index: 017691
Input file: /data/retarget/locomotion/raw/AMASS_SMPLXG/WEIZMANN/70/Slow_SShapeRL(19)_stageii.npz
Output file: ../robot/ik_based/pkl/017691.pkl
Status: SKIPPED (ALREADY EXISTS) - NO PROCESSING PERFORMED
==================================================

=== SKIPPED (ALREADY EXISTS) - 2025-10-14 22:51:35 ===
File index: 017692
Input file: /data/retarget/locomotion/raw/AMASS_SMPLXG/WEIZMANN/70/Slow_SShapeRL(2)_stageii.npz
Output file: ../robot/ik_based/pkl/017692.pkl
Status: SKIPPED (ALREADY EXISTS) - NO PROCESSING PERFORMED
==================================================

=== SKIPPED (ALREADY EXISTS) - 2025-10-14 22:51:35 ===
File index: 017693
Input file: /data/retarget/locomotion/raw/AMASS_SMPLXG/WEIZMANN/70/Slow_SShapeRL(20)_stageii.npz
Output file: ../robot/ik_based/pkl/017693.pkl
Status: SKIPPED (ALREADY EXISTS) - NO PROCESSING PERFORMED
==================================================

=== SKIPPED (ALREADY EXISTS) - 2025-10-14 22:51:35 ===
File index: 017694
Input file: /data/retarget/locomotion/raw/AMASS_SMPLXG/WEIZMANN/70/Slow_SShapeRL(21)_stageii.npz
Output file: ../robot/ik_based/pkl/017694.pkl
Status: SKIPPED (ALREADY EXISTS) - NO PROCESSING PERFORMED
==================================================

=== SKIPPED (ALREADY EXISTS) - 2025-10-14 22:51:35 ===
File index: 017695
Input file: /data/retarget/locomotion/raw/AMASS_SMPLXG/WEIZMANN/70/Slow_SShapeRL(22)_stageii.npz
Output file: ../robot/ik_based/pkl/017695.pkl
Status: SKIPPED (ALREADY EXISTS) - NO PROCESSING PERFORMED
==================================================

=== SKIPPED (ALREADY EXISTS) - 2025-10-14 22:51:35 ===
File index: 017696
Input file: /data/retarget/locomotion/raw/AMASS_SMPLXG/WEIZMANN/70/Slow_SShapeRL(23)_stageii.npz
Output file: ../robot/ik_based/pkl/017696.pkl
Status: SKIPPED (ALREADY EXISTS) - NO PROCESSING PERFORMED
==================================================

=== SKIPPED (ALREADY EXISTS) - 2025-10-14 22:51:35 ===
File index: 017697
Input file: /data/retarget/locomotion/raw/AMASS_SMPLXG/WEIZMANN/70/Slow_SShapeRL(3)_stageii.npz
Output file: ../robot/ik_based/pkl/017697.pkl
Status: SKIPPED (ALREADY EXISTS) - NO PROCESSING PERFORMED
==================================================

=== SKIPPED (ALREADY EXISTS) - 2025-10-14 22:51:35 ===
File index: 017698
Input file: /data/retarget/locomotion/raw/AMASS_SMPLXG/WEIZMANN/70/Slow_SShapeRL(4)_stageii.npz
Output file: ../robot/ik_based/pkl/017698.pkl
Status: SKIPPED (ALREADY EXISTS) - NO PROCESSING PERFORMED
==================================================

=== SKIPPED (ALREADY EXISTS) - 2025-10-14 22:51:35 ===
File index: 017699
Input file: /data/retarget/locomotion/raw/AMASS_SMPLXG/WEIZMANN/70/Slow_SShapeRL(5)_stageii.npz
Output file: ../robot/ik_based/pkl/017699.pkl
Status: SKIPPED (ALREADY EXISTS) - NO PROCESSING PERFORMED
==================================================

=== SKIPPED (ALREADY EXISTS) - 2025-10-14 22:51:35 ===
File index: 017700
Input file: /data/retarget/locomotion/raw/AMASS_SMPLXG/WEIZMANN/70/Slow_SShapeRL(6)_stageii.npz
Output file: ../robot/ik_based/pkl/017700.pkl
Status: SKIPPED (ALREADY EXISTS) - NO PROCESSING PERFORMED
==================================================

=== SKIPPED (ALREADY EXISTS) - 2025-10-14 22:51:35 ===
File index: 017701
Input file: /data/retarget/locomotion/raw/AMASS_SMPLXG/WEIZMANN/70/Slow_SShapeRL(7)_stageii.npz
Output file: ../robot/ik_based/pkl/017701.pkl
Status: SKIPPED (ALREADY EXISTS) - NO PROCESSING PERFORMED
==================================================

=== SKIPPED (ALREADY EXISTS) - 2025-10-14 22:51:35 ===
File index: 017702
Input file: /data/retarget/locomotion/raw/AMASS_SMPLXG/WEIZMANN/70/Slow_SShapeRL(8)_stageii.npz
Output file: ../robot/ik_based/pkl/017702.pkl
Status: SKIPPED (ALREADY EXISTS) - NO PROCESSING PERFORMED
==================================================

=== SKIPPED (ALREADY EXISTS) - 2025-10-14 22:51:35 ===
File index: 017703
Input file: /data/retarget/locomotion/raw/AMASS_SMPLXG/WEIZMANN/70/Slow_SShapeRL(9)_stageii.npz
Output file: ../robot/ik_based/pkl/017703.pkl
Status: SKIPPED (ALREADY EXISTS) - NO PROCESSING PERFORMED
==================================================

=== SKIPPED (ALREADY EXISTS) - 2025-10-14 22:51:35 ===
File index: 017704
Input file: /data/retarget/locomotion/raw/AMASS_SMPLXG/WEIZMANN/70/Slow_StraightLong(1)_stageii.npz
Output file: ../robot/ik_based/pkl/017704.pkl
Status: SKIPPED (ALREADY EXISTS) - NO PROCESSING PERFORMED
==================================================

=== SKIPPED (ALREADY EXISTS) - 2025-10-14 22:51:35 ===
File index: 017705
Input file: /data/retarget/locomotion/raw/AMASS_SMPLXG/WEIZMANN/70/Slow_StraightLong(10)_stageii.npz
Output file: ../robot/ik_based/pkl/017705.pkl
Status: SKIPPED (ALREADY EXISTS) - NO PROCESSING PERFORMED
==================================================

=== SKIPPED (ALREADY EXISTS) - 2025-10-14 22:51:35 ===
File index: 017706
Input file: /data/retarget/locomotion/raw/AMASS_SMPLXG/WEIZMANN/70/Slow_StraightLong(11)_stageii.npz
Output file: ../robot/ik_based/pkl/017706.pkl
Status: SKIPPED (ALREADY EXISTS) - NO PROCESSING PERFORMED
==================================================

=== SKIPPED (ALREADY EXISTS) - 2025-10-14 22:51:35 ===
File index: 017707
Input file: /data/retarget/locomotion/raw/AMASS_SMPLXG/WEIZMANN/70/Slow_StraightLong(12)_stageii.npz
Output file: ../robot/ik_based/pkl/017707.pkl
Status: SKIPPED (ALREADY EXISTS) - NO PROCESSING PERFORMED
==================================================

=== SKIPPED (ALREADY EXISTS) - 2025-10-14 22:51:35 ===
File index: 017708
Input file: /data/retarget/locomotion/raw/AMASS_SMPLXG/WEIZMANN/70/Slow_StraightLong(13)_stageii.npz
Output file: ../robot/ik_based/pkl/017708.pkl
Status: SKIPPED (ALREADY EXISTS) - NO PROCESSING PERFORMED
==================================================

=== SKIPPED (ALREADY EXISTS) - 2025-10-14 22:51:35 ===
File index: 017709
Input file: /data/retarget/locomotion/raw/AMASS_SMPLXG/WEIZMANN/70/Slow_StraightLong(14)_stageii.npz
Output file: ../robot/ik_based/pkl/017709.pkl
Status: SKIPPED (ALREADY EXISTS) - NO PROCESSING PERFORMED
==================================================

=== SKIPPED (ALREADY EXISTS) - 2025-10-14 22:51:35 ===
File index: 017710
Input file: /data/retarget/locomotion/raw/AMASS_SMPLXG/WEIZMANN/70/Slow_StraightLong(15)_stageii.npz
Output file: ../robot/ik_based/pkl/017710.pkl
Status: SKIPPED (ALREADY EXISTS) - NO PROCESSING PERFORMED
==================================================

=== SKIPPED (ALREADY EXISTS) - 2025-10-14 22:51:35 ===
File index: 017711
Input file: /data/retarget/locomotion/raw/AMASS_SMPLXG/WEIZMANN/70/Slow_StraightLong(16)_stageii.npz
Output file: ../robot/ik_based/pkl/017711.pkl
Status: SKIPPED (ALREADY EXISTS) - NO PROCESSING PERFORMED
==================================================

=== SKIPPED (ALREADY EXISTS) - 2025-10-14 22:51:35 ===
File index: 017712
Input file: /data/retarget/locomotion/raw/AMASS_SMPLXG/WEIZMANN/70/Slow_StraightLong(17)_stageii.npz
Output file: ../robot/ik_based/pkl/017712.pkl
Status: SKIPPED (ALREADY EXISTS) - NO PROCESSING PERFORMED
==================================================

=== SKIPPED (ALREADY EXISTS) - 2025-10-14 22:51:35 ===
File index: 017713
Input file: /data/retarget/locomotion/raw/AMASS_SMPLXG/WEIZMANN/70/Slow_StraightLong(18)_stageii.npz
Output file: ../robot/ik_based/pkl/017713.pkl
Status: SKIPPED (ALREADY EXISTS) - NO PROCESSING PERFORMED
==================================================

=== SKIPPED (ALREADY EXISTS) - 2025-10-14 22:51:35 ===
File index: 017714
Input file: /data/retarget/locomotion/raw/AMASS_SMPLXG/WEIZMANN/70/Slow_StraightLong(19)_stageii.npz
Output file: ../robot/ik_based/pkl/017714.pkl
Status: SKIPPED (ALREADY EXISTS) - NO PROCESSING PERFORMED
==================================================

=== SKIPPED (ALREADY EXISTS) - 2025-10-14 22:51:35 ===
File index: 017715
Input file: /data/retarget/locomotion/raw/AMASS_SMPLXG/WEIZMANN/70/Slow_StraightLong(2)_stageii.npz
Output file: ../robot/ik_based/pkl/017715.pkl
Status: SKIPPED (ALREADY EXISTS) - NO PROCESSING PERFORMED
==================================================

=== SKIPPED (ALREADY EXISTS) - 2025-10-14 22:51:35 ===
File index: 017716
Input file: /data/retarget/locomotion/raw/AMASS_SMPLXG/WEIZMANN/70/Slow_StraightLong(20)_stageii.npz
Output file: ../robot/ik_based/pkl/017716.pkl
Status: SKIPPED (ALREADY EXISTS) - NO PROCESSING PERFORMED
==================================================

=== SKIPPED (ALREADY EXISTS) - 2025-10-14 22:51:35 ===
File index: 017717
Input file: /data/retarget/locomotion/raw/AMASS_SMPLXG/WEIZMANN/70/Slow_StraightLong(21)_stageii.npz
Output file: ../robot/ik_based/pkl/017717.pkl
Status: SKIPPED (ALREADY EXISTS) - NO PROCESSING PERFORMED
==================================================

=== SKIPPED (ALREADY EXISTS) - 2025-10-14 22:51:35 ===
File index: 017718
Input file: /data/retarget/locomotion/raw/AMASS_SMPLXG/WEIZMANN/70/Slow_StraightLong(22)_stageii.npz
Output file: ../robot/ik_based/pkl/017718.pkl
Status: SKIPPED (ALREADY EXISTS) - NO PROCESSING PERFORMED
==================================================

=== SKIPPED (ALREADY EXISTS) - 2025-10-14 22:51:35 ===
File index: 017719
Input file: /data/retarget/locomotion/raw/AMASS_SMPLXG/WEIZMANN/70/Slow_StraightLong(23)_stageii.npz
Output file: ../robot/ik_based/pkl/017719.pkl
Status: SKIPPED (ALREADY EXISTS) - NO PROCESSING PERFORMED
==================================================

=== SKIPPED (ALREADY EXISTS) - 2025-10-14 22:51:35 ===
File index: 017720
Input file: /data/retarget/locomotion/raw/AMASS_SMPLXG/WEIZMANN/70/Slow_StraightLong(24)_stageii.npz
Output file: ../robot/ik_based/pkl/017720.pkl
Status: SKIPPED (ALREADY EXISTS) - NO PROCESSING PERFORMED
==================================================

=== SKIPPED (ALREADY EXISTS) - 2025-10-14 22:51:35 ===
File index: 017721
Input file: /data/retarget/locomotion/raw/AMASS_SMPLXG/WEIZMANN/70/Slow_StraightLong(25)_stageii.npz
Output file: ../robot/ik_based/pkl/017721.pkl
Status: SKIPPED (ALREADY EXISTS) - NO PROCESSING PERFORMED
==================================================

=== SKIPPED (ALREADY EXISTS) - 2025-10-14 22:51:35 ===
File index: 017722
Input file: /data/retarget/locomotion/raw/AMASS_SMPLXG/WEIZMANN/70/Slow_StraightLong(26)_stageii.npz
Output file: ../robot/ik_based/pkl/017722.pkl
Status: SKIPPED (ALREADY EXISTS) - NO PROCESSING PERFORMED
==================================================

=== SKIPPED (ALREADY EXISTS) - 2025-10-14 22:51:35 ===
File index: 017723
Input file: /data/retarget/locomotion/raw/AMASS_SMPLXG/WEIZMANN/70/Slow_StraightLong(27)_stageii.npz
Output file: ../robot/ik_based/pkl/017723.pkl
Status: SKIPPED (ALREADY EXISTS) - NO PROCESSING PERFORMED
==================================================

=== SKIPPED (ALREADY EXISTS) - 2025-10-14 22:51:35 ===
File index: 017724
Input file: /data/retarget/locomotion/raw/AMASS_SMPLXG/WEIZMANN/70/Slow_StraightLong(28)_stageii.npz
Output file: ../robot/ik_based/pkl/017724.pkl
Status: SKIPPED (ALREADY EXISTS) - NO PROCESSING PERFORMED
==================================================

=== SKIPPED (ALREADY EXISTS) - 2025-10-14 22:51:35 ===
File index: 017725
Input file: /data/retarget/locomotion/raw/AMASS_SMPLXG/WEIZMANN/70/Slow_StraightLong(29)_stageii.npz
Output file: ../robot/ik_based/pkl/017725.pkl
Status: SKIPPED (ALREADY EXISTS) - NO PROCESSING PERFORMED
==================================================

=== SKIPPED (ALREADY EXISTS) - 2025-10-14 22:51:35 ===
File index: 017726
Input file: /data/retarget/locomotion/raw/AMASS_SMPLXG/WEIZMANN/70/Slow_StraightLong(3)_stageii.npz
Output file: ../robot/ik_based/pkl/017726.pkl
Status: SKIPPED (ALREADY EXISTS) - NO PROCESSING PERFORMED
==================================================

=== SKIPPED (ALREADY EXISTS) - 2025-10-14 22:51:35 ===
File index: 017727
Input file: /data/retarget/locomotion/raw/AMASS_SMPLXG/WEIZMANN/70/Slow_StraightLong(30)_stageii.npz
Output file: ../robot/ik_based/pkl/017727.pkl
Status: SKIPPED (ALREADY EXISTS) - NO PROCESSING PERFORMED
==================================================

=== SKIPPED (ALREADY EXISTS) - 2025-10-14 22:51:35 ===
File index: 017728
Input file: /data/retarget/locomotion/raw/AMASS_SMPLXG/WEIZMANN/70/Slow_StraightLong(31)_stageii.npz
Output file: ../robot/ik_based/pkl/017728.pkl
Status: SKIPPED (ALREADY EXISTS) - NO PROCESSING PERFORMED
==================================================

=== SKIPPED (ALREADY EXISTS) - 2025-10-14 22:51:35 ===
File index: 017729
Input file: /data/retarget/locomotion/raw/AMASS_SMPLXG/WEIZMANN/70/Slow_StraightLong(32)_stageii.npz
Output file: ../robot/ik_based/pkl/017729.pkl
Status: SKIPPED (ALREADY EXISTS) - NO PROCESSING PERFORMED
==================================================

=== SKIPPED (ALREADY EXISTS) - 2025-10-14 22:51:35 ===
File index: 017730
Input file: /data/retarget/locomotion/raw/AMASS_SMPLXG/WEIZMANN/70/Slow_StraightLong(33)_stageii.npz
Output file: ../robot/ik_based/pkl/017730.pkl
Status: SKIPPED (ALREADY EXISTS) - NO PROCESSING PERFORMED
==================================================

=== SKIPPED (ALREADY EXISTS) - 2025-10-14 22:51:35 ===
File index: 017731
Input file: /data/retarget/locomotion/raw/AMASS_SMPLXG/WEIZMANN/70/Slow_StraightLong(34)_stageii.npz
Output file: ../robot/ik_based/pkl/017731.pkl
Status: SKIPPED (ALREADY EXISTS) - NO PROCESSING PERFORMED
==================================================

=== SKIPPED (ALREADY EXISTS) - 2025-10-14 22:51:35 ===
File index: 017732
Input file: /data/retarget/locomotion/raw/AMASS_SMPLXG/WEIZMANN/70/Slow_StraightLong(35)_stageii.npz
Output file: ../robot/ik_based/pkl/017732.pkl
Status: SKIPPED (ALREADY EXISTS) - NO PROCESSING PERFORMED
==================================================

=== SKIPPED (ALREADY EXISTS) - 2025-10-14 22:51:35 ===
File index: 017733
Input file: /data/retarget/locomotion/raw/AMASS_SMPLXG/WEIZMANN/70/Slow_StraightLong(36)_stageii.npz
Output file: ../robot/ik_based/pkl/017733.pkl
Status: SKIPPED (ALREADY EXISTS) - NO PROCESSING PERFORMED
==================================================

=== SKIPPED (ALREADY EXISTS) - 2025-10-14 22:51:35 ===
File index: 017734
Input file: /data/retarget/locomotion/raw/AMASS_SMPLXG/WEIZMANN/70/Slow_StraightLong(37)_stageii.npz
Output file: ../robot/ik_based/pkl/017734.pkl
Status: SKIPPED (ALREADY EXISTS) - NO PROCESSING PERFORMED
==================================================

=== SKIPPED (ALREADY EXISTS) - 2025-10-14 22:51:35 ===
File index: 017735
Input file: /data/retarget/locomotion/raw/AMASS_SMPLXG/WEIZMANN/70/Slow_StraightLong(38)_stageii.npz
Output file: ../robot/ik_based/pkl/017735.pkl
Status: SKIPPED (ALREADY EXISTS) - NO PROCESSING PERFORMED
==================================================

=== SKIPPED (ALREADY EXISTS) - 2025-10-14 22:51:35 ===
File index: 017736
Input file: /data/retarget/locomotion/raw/AMASS_SMPLXG/WEIZMANN/70/Slow_StraightLong(39)_stageii.npz
Output file: ../robot/ik_based/pkl/017736.pkl
Status: SKIPPED (ALREADY EXISTS) - NO PROCESSING PERFORMED
==================================================

=== SKIPPED (ALREADY EXISTS) - 2025-10-14 22:51:35 ===
File index: 017737
Input file: /data/retarget/locomotion/raw/AMASS_SMPLXG/WEIZMANN/70/Slow_StraightLong(4)_stageii.npz
Output file: ../robot/ik_based/pkl/017737.pkl
Status: SKIPPED (ALREADY EXISTS) - NO PROCESSING PERFORMED
==================================================

=== SKIPPED (ALREADY EXISTS) - 2025-10-14 22:51:35 ===
File index: 017738
Input file: /data/retarget/locomotion/raw/AMASS_SMPLXG/WEIZMANN/70/Slow_StraightLong(40)_stageii.npz
Output file: ../robot/ik_based/pkl/017738.pkl
Status: SKIPPED (ALREADY EXISTS) - NO PROCESSING PERFORMED
==================================================

=== SKIPPED (ALREADY EXISTS) - 2025-10-14 22:51:35 ===
File index: 017739
Input file: /data/retarget/locomotion/raw/AMASS_SMPLXG/WEIZMANN/70/Slow_StraightLong(41)_stageii.npz
Output file: ../robot/ik_based/pkl/017739.pkl
Status: SKIPPED (ALREADY EXISTS) - NO PROCESSING PERFORMED
==================================================

=== SKIPPED (ALREADY EXISTS) - 2025-10-14 22:51:35 ===
File index: 017740
Input file: /data/retarget/locomotion/raw/AMASS_SMPLXG/WEIZMANN/70/Slow_StraightLong(42)_stageii.npz
Output file: ../robot/ik_based/pkl/017740.pkl
Status: SKIPPED (ALREADY EXISTS) - NO PROCESSING PERFORMED
==================================================

=== SKIPPED (ALREADY EXISTS) - 2025-10-14 22:51:35 ===
File index: 017741
Input file: /data/retarget/locomotion/raw/AMASS_SMPLXG/WEIZMANN/70/Slow_StraightLong(43)_stageii.npz
Output file: ../robot/ik_based/pkl/017741.pkl
Status: SKIPPED (ALREADY EXISTS) - NO PROCESSING PERFORMED
==================================================

=== SKIPPED (ALREADY EXISTS) - 2025-10-14 22:51:35 ===
File index: 017742
Input file: /data/retarget/locomotion/raw/AMASS_SMPLXG/WEIZMANN/70/Slow_StraightLong(44)_stageii.npz
Output file: ../robot/ik_based/pkl/017742.pkl
Status: SKIPPED (ALREADY EXISTS) - NO PROCESSING PERFORMED
==================================================

=== SKIPPED (ALREADY EXISTS) - 2025-10-14 22:51:35 ===
File index: 017743
Input file: /data/retarget/locomotion/raw/AMASS_SMPLXG/WEIZMANN/70/Slow_StraightLong(45)_stageii.npz
Output file: ../robot/ik_based/pkl/017743.pkl
Status: SKIPPED (ALREADY EXISTS) - NO PROCESSING PERFORMED
==================================================

=== SKIPPED (ALREADY EXISTS) - 2025-10-14 22:51:35 ===
File index: 017744
Input file: /data/retarget/locomotion/raw/AMASS_SMPLXG/WEIZMANN/70/Slow_StraightLong(46)_stageii.npz
Output file: ../robot/ik_based/pkl/017744.pkl
Status: SKIPPED (ALREADY EXISTS) - NO PROCESSING PERFORMED
==================================================

=== SKIPPED (ALREADY EXISTS) - 2025-10-14 22:51:35 ===
File index: 017745
Input file: /data/retarget/locomotion/raw/AMASS_SMPLXG/WEIZMANN/70/Slow_StraightLong(47)_stageii.npz
Output file: ../robot/ik_based/pkl/017745.pkl
Status: SKIPPED (ALREADY EXISTS) - NO PROCESSING PERFORMED
==================================================

=== SKIPPED (ALREADY EXISTS) - 2025-10-14 22:51:35 ===
File index: 017746
Input file: /data/retarget/locomotion/raw/AMASS_SMPLXG/WEIZMANN/70/Slow_StraightLong(48)_stageii.npz
Output file: ../robot/ik_based/pkl/017746.pkl
Status: SKIPPED (ALREADY EXISTS) - NO PROCESSING PERFORMED
==================================================

=== SKIPPED (ALREADY EXISTS) - 2025-10-14 22:51:35 ===
File index: 017747
Input file: /data/retarget/locomotion/raw/AMASS_SMPLXG/WEIZMANN/70/Slow_StraightLong(5)_stageii.npz
Output file: ../robot/ik_based/pkl/017747.pkl
Status: SKIPPED (ALREADY EXISTS) - NO PROCESSING PERFORMED
==================================================

=== SKIPPED (ALREADY EXISTS) - 2025-10-14 22:51:35 ===
File index: 017748
Input file: /data/retarget/locomotion/raw/AMASS_SMPLXG/WEIZMANN/70/Slow_StraightLong(6)_stageii.npz
Output file: ../robot/ik_based/pkl/017748.pkl
Status: SKIPPED (ALREADY EXISTS) - NO PROCESSING PERFORMED
==================================================

=== SKIPPED (ALREADY EXISTS) - 2025-10-14 22:51:35 ===
File index: 017749
Input file: /data/retarget/locomotion/raw/AMASS_SMPLXG/WEIZMANN/70/Slow_StraightLong(7)_stageii.npz
Output file: ../robot/ik_based/pkl/017749.pkl
Status: SKIPPED (ALREADY EXISTS) - NO PROCESSING PERFORMED
==================================================

=== SKIPPED (ALREADY EXISTS) - 2025-10-14 22:51:35 ===
File index: 017750
Input file: /data/retarget/locomotion/raw/AMASS_SMPLXG/WEIZMANN/70/Slow_StraightLong(8)_stageii.npz
Output file: ../robot/ik_based/pkl/017750.pkl
Status: SKIPPED (ALREADY EXISTS) - NO PROCESSING PERFORMED
==================================================

=== SKIPPED (ALREADY EXISTS) - 2025-10-14 22:51:35 ===
File index: 017751
Input file: /data/retarget/locomotion/raw/AMASS_SMPLXG/WEIZMANN/70/Slow_StraightLong(9)_stageii.npz
Output file: ../robot/ik_based/pkl/017751.pkl
Status: SKIPPED (ALREADY EXISTS) - NO PROCESSING PERFORMED
==================================================

=== SKIPPED (ALREADY EXISTS) - 2025-10-14 22:51:35 ===
File index: 017752
Input file: /data/retarget/locomotion/raw/AMASS_SMPLXG/WEIZMANN/70/Slow_StraightShort(1)_stageii.npz
Output file: ../robot/ik_based/pkl/017752.pkl
Status: SKIPPED (ALREADY EXISTS) - NO PROCESSING PERFORMED
==================================================

=== SKIPPED (ALREADY EXISTS) - 2025-10-14 22:51:35 ===
File index: 017753
Input file: /data/retarget/locomotion/raw/AMASS_SMPLXG/WEIZMANN/70/Slow_StraightShort(2)_stageii.npz
Output file: ../robot/ik_based/pkl/017753.pkl
Status: SKIPPED (ALREADY EXISTS) - NO PROCESSING PERFORMED
==================================================

=== SKIPPED (ALREADY EXISTS) - 2025-10-14 22:51:35 ===
File index: 017754
Input file: /data/retarget/locomotion/raw/AMASS_SMPLXG/WEIZMANN/70/Slow_StraightShort(3)_stageii.npz
Output file: ../robot/ik_based/pkl/017754.pkl
Status: SKIPPED (ALREADY EXISTS) - NO PROCESSING PERFORMED
==================================================

=== SKIPPED (ALREADY EXISTS) - 2025-10-14 22:51:35 ===
File index: 017755
Input file: /data/retarget/locomotion/raw/AMASS_SMPLXG/WEIZMANN/70/Slow_StraightShort(4)_stageii.npz
Output file: ../robot/ik_based/pkl/017755.pkl
Status: SKIPPED (ALREADY EXISTS) - NO PROCESSING PERFORMED
==================================================

=== ERROR LOG - 2025-10-14 22:51:36 ===
Input file: /data/retarget/locomotion/raw/AMASS_SMPLXG/WEIZMANN/70/male_stagei.npz
Output file: ../robot/ik_based/pkl/017756.pkl
Robot type: unitree_g1
Processing time: 1.03 seconds
Error message: 'pose_body is not a file in the archive'
Error type: KeyError
==================================================

=== FILE FAILURE - 2025-10-14 22:51:36 ===
File index: 017756
File number: 157/157
Input file: /data/retarget/locomotion/raw/AMASS_SMPLXG/WEIZMANN/70/male_stagei.npz
Output file: ../robot/ik_based/pkl/017756.pkl
Processing time: 1.03 seconds
Total file time: 1.18 seconds
Status: FAILED
==================================================

=== FINAL STATISTICS - 2025-10-14 22:51:36 ===
Total files processed: 157
Successful: 156
Failed: 1
, Total processing time: 1.03 seconds
 Total execution time: 1.59 seconds
Average processing time per file: 0.01 seconds
Average frames per file: 0.0 frames (0 files with frames)
Total frames processed: 0 frames
==================================================
