
=== SUCCESS LOG - 2025-10-14 17:28:49 ===
Input file: /data/retarget/locomotion/raw/AMASS_SMPLXG/KIT/572/wave_both11_stageii.npz
Output file: ../robot/ik_based/pkl/014100.pkl
Robot type: unitree_g1
Processing time: 35.30 seconds

STEP-BY-STEP TIMING:
  Step 1 - Load SMPLX:        1.54s
  Step 2 - Align FPS:         5.59s
  Step 3 - Init Retarget:     0.84s
  Step 4 - Init Visualization: 0.00s
  Step 5 - Process Frames:    25.70s (avg: 0.098s/frame)
  Step 6 - Convert Arrays:    0.00s
  Step 7 - Forward Kinematics: 1.42s
  Step 8 - Save Data:         0.00s
Status: SUCCESS
==================================================

=== SUCCESS LOG - 2025-10-14 17:28:49 ===
Input file: /data/retarget/locomotion/raw/AMASS_SMPLXG/KIT/572/wave_both13_stageii.npz
Output file: ../robot/ik_based/pkl/014102.pkl
Robot type: unitree_g1
Processing time: 35.78 seconds

STEP-BY-STEP TIMING:
  Step 1 - Load SMPLX:        1.65s
  Step 2 - Align FPS:         5.49s
  Step 3 - Init Retarget:     0.87s
  Step 4 - Init Visualization: 0.00s
  Step 5 - Process Frames:    27.05s (avg: 0.096s/frame)
  Step 6 - Convert Arrays:    0.00s
  Step 7 - Forward Kinematics: 0.57s
  Step 8 - Save Data:         0.00s
Status: SUCCESS
==================================================

=== SUCCESS LOG - 2025-10-14 17:28:49 ===
Input file: /data/retarget/locomotion/raw/AMASS_SMPLXG/KIT/572/wave_both12_stageii.npz
Output file: ../robot/ik_based/pkl/014101.pkl
Robot type: unitree_g1
Processing time: 35.93 seconds

STEP-BY-STEP TIMING:
  Step 1 - Load SMPLX:        1.58s
  Step 2 - Align FPS:         5.08s
  Step 3 - Init Retarget:     1.21s
  Step 4 - Init Visualization: 0.00s
  Step 5 - Process Frames:    27.25s (avg: 0.096s/frame)
  Step 6 - Convert Arrays:    0.00s
  Step 7 - Forward Kinematics: 0.62s
  Step 8 - Save Data:         0.00s
Status: SUCCESS
==================================================

=== SUCCESS LOG - 2025-10-14 17:29:12 ===
Input file: /data/retarget/locomotion/raw/AMASS_SMPLXG/KIT/572/wave_left01_stageii.npz
Output file: ../robot/ik_based/pkl/014105.pkl
Robot type: unitree_g1
Processing time: 22.62 seconds

STEP-BY-STEP TIMING:
  Step 1 - Load SMPLX:        1.90s
  Step 2 - Align FPS:         3.11s
  Step 3 - Init Retarget:     0.55s
  Step 4 - Init Visualization: 0.00s
  Step 5 - Process Frames:    16.24s (avg: 0.080s/frame)
  Step 6 - Convert Arrays:    0.00s
  Step 7 - Forward Kinematics: 0.43s
  Step 8 - Save Data:         0.01s
Status: SUCCESS
==================================================

=== SUCCESS LOG - 2025-10-14 17:29:20 ===
Input file: /data/retarget/locomotion/raw/AMASS_SMPLXG/KIT/572/wave_both15_stageii.npz
Output file: ../robot/ik_based/pkl/014104.pkl
Robot type: unitree_g1
Processing time: 30.96 seconds

STEP-BY-STEP TIMING:
  Step 1 - Load SMPLX:        2.15s
  Step 2 - Align FPS:         3.39s
  Step 3 - Init Retarget:     0.32s
  Step 4 - Init Visualization: 0.00s
  Step 5 - Process Frames:    24.40s (avg: 0.097s/frame)
  Step 6 - Convert Arrays:    0.01s
  Step 7 - Forward Kinematics: 0.40s
  Step 8 - Save Data:         0.01s
Status: SUCCESS
==================================================

=== SUCCESS LOG - 2025-10-14 17:29:21 ===
Input file: /data/retarget/locomotion/raw/AMASS_SMPLXG/KIT/572/wave_both14_stageii.npz
Output file: ../robot/ik_based/pkl/014103.pkl
Robot type: unitree_g1
Processing time: 31.97 seconds

STEP-BY-STEP TIMING:
  Step 1 - Load SMPLX:        1.43s
  Step 2 - Align FPS:         3.78s
  Step 3 - Init Retarget:     0.43s
  Step 4 - Init Visualization: 0.00s
  Step 5 - Process Frames:    25.76s (avg: 0.093s/frame)
  Step 6 - Convert Arrays:    0.00s
  Step 7 - Forward Kinematics: 0.33s
  Step 8 - Save Data:         0.01s
Status: SUCCESS
==================================================

=== SUCCESS LOG - 2025-10-14 17:29:27 ===
Input file: /data/retarget/locomotion/raw/AMASS_SMPLXG/KIT/572/wave_left03_stageii.npz
Output file: ../robot/ik_based/pkl/014107.pkl
Robot type: unitree_g1
Processing time: 15.05 seconds

STEP-BY-STEP TIMING:
  Step 1 - Load SMPLX:        4.10s
  Step 2 - Align FPS:         2.06s
  Step 3 - Init Retarget:     0.41s
  Step 4 - Init Visualization: 0.00s
  Step 5 - Process Frames:    7.70s (avg: 0.049s/frame)
  Step 6 - Convert Arrays:    0.00s
  Step 7 - Forward Kinematics: 0.40s
  Step 8 - Save Data:         0.01s
Status: SUCCESS
==================================================

=== SUCCESS LOG - 2025-10-14 17:29:37 ===
Input file: /data/retarget/locomotion/raw/AMASS_SMPLXG/KIT/572/wave_left04_stageii.npz
Output file: ../robot/ik_based/pkl/014108.pkl
Robot type: unitree_g1
Processing time: 16.15 seconds

STEP-BY-STEP TIMING:
  Step 1 - Load SMPLX:        2.67s
  Step 2 - Align FPS:         2.15s
  Step 3 - Init Retarget:     0.51s
  Step 4 - Init Visualization: 0.00s
  Step 5 - Process Frames:    9.88s (avg: 0.068s/frame)
  Step 6 - Convert Arrays:    0.00s
  Step 7 - Forward Kinematics: 0.58s
  Step 8 - Save Data:         0.01s
Status: SUCCESS
==================================================

=== SUCCESS LOG - 2025-10-14 17:29:37 ===
Input file: /data/retarget/locomotion/raw/AMASS_SMPLXG/KIT/572/wave_left05_stageii.npz
Output file: ../robot/ik_based/pkl/014109.pkl
Robot type: unitree_g1
Processing time: 16.04 seconds

STEP-BY-STEP TIMING:
  Step 1 - Load SMPLX:        2.89s
  Step 2 - Align FPS:         1.99s
  Step 3 - Init Retarget:     0.37s
  Step 4 - Init Visualization: 0.00s
  Step 5 - Process Frames:    10.14s (avg: 0.065s/frame)
  Step 6 - Convert Arrays:    0.00s
  Step 7 - Forward Kinematics: 0.41s
  Step 8 - Save Data:         0.01s
Status: SUCCESS
==================================================

=== SUCCESS LOG - 2025-10-14 17:29:40 ===
Input file: /data/retarget/locomotion/raw/AMASS_SMPLXG/KIT/572/wave_left06_stageii.npz
Output file: ../robot/ik_based/pkl/014110.pkl
Robot type: unitree_g1
Processing time: 12.20 seconds

STEP-BY-STEP TIMING:
  Step 1 - Load SMPLX:        5.01s
  Step 2 - Align FPS:         1.83s
  Step 3 - Init Retarget:     0.39s
  Step 4 - Init Visualization: 0.00s
  Step 5 - Process Frames:    4.90s (avg: 0.033s/frame)
  Step 6 - Convert Arrays:    0.00s
  Step 7 - Forward Kinematics: 0.03s
  Step 8 - Save Data:         0.00s
Status: SUCCESS
==================================================

=== SUCCESS LOG - 2025-10-14 17:29:58 ===
Input file: /data/retarget/locomotion/raw/AMASS_SMPLXG/KIT/572/wave_left07_stageii.npz
Output file: ../robot/ik_based/pkl/014111.pkl
Robot type: unitree_g1
Processing time: 20.88 seconds

STEP-BY-STEP TIMING:
  Step 1 - Load SMPLX:        3.35s
  Step 2 - Align FPS:         2.08s
  Step 3 - Init Retarget:     0.34s
  Step 4 - Init Visualization: 0.00s
  Step 5 - Process Frames:    14.17s (avg: 0.082s/frame)
  Step 6 - Convert Arrays:    0.00s
  Step 7 - Forward Kinematics: 0.45s
  Step 8 - Save Data:         0.02s
Status: SUCCESS
==================================================

=== SUCCESS LOG - 2025-10-14 17:29:59 ===
Input file: /data/retarget/locomotion/raw/AMASS_SMPLXG/KIT/572/wave_left08_stageii.npz
Output file: ../robot/ik_based/pkl/014112.pkl
Robot type: unitree_g1
Processing time: 21.28 seconds

STEP-BY-STEP TIMING:
  Step 1 - Load SMPLX:        3.43s
  Step 2 - Align FPS:         1.99s
  Step 3 - Init Retarget:     0.28s
  Step 4 - Init Visualization: 0.00s
  Step 5 - Process Frames:    15.19s (avg: 0.080s/frame)
  Step 6 - Convert Arrays:    0.00s
  Step 7 - Forward Kinematics: 0.20s
  Step 8 - Save Data:         0.01s
Status: SUCCESS
==================================================

=== SUCCESS LOG - 2025-10-14 17:30:00 ===
Input file: /data/retarget/locomotion/raw/AMASS_SMPLXG/KIT/572/wave_left09_stageii.npz
Output file: ../robot/ik_based/pkl/014113.pkl
Robot type: unitree_g1
Processing time: 19.58 seconds

STEP-BY-STEP TIMING:
  Step 1 - Load SMPLX:        4.30s
  Step 2 - Align FPS:         2.69s
  Step 3 - Init Retarget:     0.38s
  Step 4 - Init Visualization: 0.00s
  Step 5 - Process Frames:    12.15s (avg: 0.064s/frame)
  Step 6 - Convert Arrays:    0.00s
  Step 7 - Forward Kinematics: 0.02s
  Step 8 - Save Data:         0.00s
Status: SUCCESS
==================================================

=== SUCCESS LOG - 2025-10-14 17:30:13 ===
Input file: /data/retarget/locomotion/raw/AMASS_SMPLXG/KIT/572/wave_left10_stageii.npz
Output file: ../robot/ik_based/pkl/014114.pkl
Robot type: unitree_g1
Processing time: 14.53 seconds

STEP-BY-STEP TIMING:
  Step 1 - Load SMPLX:        2.16s
  Step 2 - Align FPS:         1.82s
  Step 3 - Init Retarget:     0.33s
  Step 4 - Init Visualization: 0.00s
  Step 5 - Process Frames:    9.46s (avg: 0.066s/frame)
  Step 6 - Convert Arrays:    0.01s
  Step 7 - Forward Kinematics: 0.39s
  Step 8 - Save Data:         0.01s
Status: SUCCESS
==================================================

=== SUCCESS LOG - 2025-10-14 17:30:14 ===
Input file: /data/retarget/locomotion/raw/AMASS_SMPLXG/KIT/572/wave_left11_stageii.npz
Output file: ../robot/ik_based/pkl/014115.pkl
Robot type: unitree_g1
Processing time: 15.27 seconds

STEP-BY-STEP TIMING:
  Step 1 - Load SMPLX:        2.07s
  Step 2 - Align FPS:         1.53s
  Step 3 - Init Retarget:     0.29s
  Step 4 - Init Visualization: 0.00s
  Step 5 - Process Frames:    10.79s (avg: 0.075s/frame)
  Step 6 - Convert Arrays:    0.00s
  Step 7 - Forward Kinematics: 0.27s
  Step 8 - Save Data:         0.01s
Status: SUCCESS
==================================================

=== SUCCESS LOG - 2025-10-14 17:30:17 ===
Input file: /data/retarget/locomotion/raw/AMASS_SMPLXG/KIT/572/wave_left12_stageii.npz
Output file: ../robot/ik_based/pkl/014116.pkl
Robot type: unitree_g1
Processing time: 17.07 seconds

STEP-BY-STEP TIMING:
  Step 1 - Load SMPLX:        3.24s
  Step 2 - Align FPS:         2.15s
  Step 3 - Init Retarget:     0.39s
  Step 4 - Init Visualization: 0.00s
  Step 5 - Process Frames:    11.05s (avg: 0.050s/frame)
  Step 6 - Convert Arrays:    0.00s
  Step 7 - Forward Kinematics: 0.02s
  Step 8 - Save Data:         0.01s
Status: SUCCESS
==================================================

=== SUCCESS LOG - 2025-10-14 17:30:37 ===
Input file: /data/retarget/locomotion/raw/AMASS_SMPLXG/KIT/572/wave_left13_stageii.npz
Output file: ../robot/ik_based/pkl/014117.pkl
Robot type: unitree_g1
Processing time: 24.27 seconds

STEP-BY-STEP TIMING:
  Step 1 - Load SMPLX:        3.71s
  Step 2 - Align FPS:         2.06s
  Step 3 - Init Retarget:     0.35s
  Step 4 - Init Visualization: 0.00s
  Step 5 - Process Frames:    17.04s (avg: 0.080s/frame)
  Step 6 - Convert Arrays:    0.00s
  Step 7 - Forward Kinematics: 0.54s
  Step 8 - Save Data:         0.01s
Status: SUCCESS
==================================================

=== SUCCESS LOG - 2025-10-14 17:30:39 ===
Input file: /data/retarget/locomotion/raw/AMASS_SMPLXG/KIT/572/wave_left14_stageii.npz
Output file: ../robot/ik_based/pkl/014118.pkl
Robot type: unitree_g1
Processing time: 24.24 seconds

STEP-BY-STEP TIMING:
  Step 1 - Load SMPLX:        3.50s
  Step 2 - Align FPS:         2.17s
  Step 3 - Init Retarget:     0.31s
  Step 4 - Init Visualization: 0.00s
  Step 5 - Process Frames:    17.76s (avg: 0.077s/frame)
  Step 6 - Convert Arrays:    0.00s
  Step 7 - Forward Kinematics: 0.26s
  Step 8 - Save Data:         0.01s
Status: SUCCESS
==================================================

=== SUCCESS LOG - 2025-10-14 17:30:40 ===
Input file: /data/retarget/locomotion/raw/AMASS_SMPLXG/KIT/572/wave_left15_stageii.npz
Output file: ../robot/ik_based/pkl/014119.pkl
Robot type: unitree_g1
Processing time: 22.91 seconds

STEP-BY-STEP TIMING:
  Step 1 - Load SMPLX:        4.48s
  Step 2 - Align FPS:         2.96s
  Step 3 - Init Retarget:     0.35s
  Step 4 - Init Visualization: 0.00s
  Step 5 - Process Frames:    15.06s (avg: 0.067s/frame)
  Step 6 - Convert Arrays:    0.00s
  Step 7 - Forward Kinematics: 0.03s
  Step 8 - Save Data:         0.00s
Status: SUCCESS
==================================================

=== SUCCESS LOG - 2025-10-14 17:30:54 ===
Input file: /data/retarget/locomotion/raw/AMASS_SMPLXG/KIT/572/wave_right01_stageii.npz
Output file: ../robot/ik_based/pkl/014121.pkl
Robot type: unitree_g1
Processing time: 15.61 seconds

STEP-BY-STEP TIMING:
  Step 1 - Load SMPLX:        2.60s
  Step 2 - Align FPS:         1.07s
  Step 3 - Init Retarget:     0.40s
  Step 4 - Init Visualization: 0.00s
  Step 5 - Process Frames:    10.70s (avg: 0.074s/frame)
  Step 6 - Convert Arrays:    0.00s
  Step 7 - Forward Kinematics: 0.44s
  Step 8 - Save Data:         0.01s
Status: SUCCESS
==================================================

=== SUCCESS LOG - 2025-10-14 17:30:55 ===
Input file: /data/retarget/locomotion/raw/AMASS_SMPLXG/KIT/572/wave_right02_stageii.npz
Output file: ../robot/ik_based/pkl/014122.pkl
Robot type: unitree_g1
Processing time: 15.05 seconds

STEP-BY-STEP TIMING:
  Step 1 - Load SMPLX:        3.66s
  Step 2 - Align FPS:         0.99s
  Step 3 - Init Retarget:     0.33s
  Step 4 - Init Visualization: 0.00s
  Step 5 - Process Frames:    9.62s (avg: 0.078s/frame)
  Step 6 - Convert Arrays:    0.00s
  Step 7 - Forward Kinematics: 0.24s
  Step 8 - Save Data:         0.00s
Status: SUCCESS
==================================================

=== SUCCESS LOG - 2025-10-14 17:30:57 ===
Input file: /data/retarget/locomotion/raw/AMASS_SMPLXG/KIT/572/wave_left16_stageii.npz
Output file: ../robot/ik_based/pkl/014120.pkl
Robot type: unitree_g1
Processing time: 19.55 seconds

STEP-BY-STEP TIMING:
  Step 1 - Load SMPLX:        3.13s
  Step 2 - Align FPS:         2.11s
  Step 3 - Init Retarget:     0.30s
  Step 4 - Init Visualization: 0.00s
  Step 5 - Process Frames:    13.95s (avg: 0.062s/frame)
  Step 6 - Convert Arrays:    0.00s
  Step 7 - Forward Kinematics: 0.02s
  Step 8 - Save Data:         0.00s
Status: SUCCESS
==================================================

=== SUCCESS LOG - 2025-10-14 17:31:12 ===
Input file: /data/retarget/locomotion/raw/AMASS_SMPLXG/KIT/572/wave_right04_stageii.npz
Output file: ../robot/ik_based/pkl/014124.pkl
Robot type: unitree_g1
Processing time: 15.91 seconds

STEP-BY-STEP TIMING:
  Step 1 - Load SMPLX:        2.50s
  Step 2 - Align FPS:         1.28s
  Step 3 - Init Retarget:     0.29s
  Step 4 - Init Visualization: 0.00s
  Step 5 - Process Frames:    11.19s (avg: 0.075s/frame)
  Step 6 - Convert Arrays:    0.00s
  Step 7 - Forward Kinematics: 0.35s
  Step 8 - Save Data:         0.01s
Status: SUCCESS
==================================================

=== SUCCESS LOG - 2025-10-14 17:31:12 ===
Input file: /data/retarget/locomotion/raw/AMASS_SMPLXG/KIT/572/wave_right03_stageii.npz
Output file: ../robot/ik_based/pkl/014123.pkl
Robot type: unitree_g1
Processing time: 17.16 seconds

STEP-BY-STEP TIMING:
  Step 1 - Load SMPLX:        2.90s
  Step 2 - Align FPS:         1.56s
  Step 3 - Init Retarget:     0.29s
  Step 4 - Init Visualization: 0.00s
  Step 5 - Process Frames:    11.91s (avg: 0.073s/frame)
  Step 6 - Convert Arrays:    0.00s
  Step 7 - Forward Kinematics: 0.32s
  Step 8 - Save Data:         0.00s
Status: SUCCESS
==================================================

=== SUCCESS LOG - 2025-10-14 17:31:13 ===
Input file: /data/retarget/locomotion/raw/AMASS_SMPLXG/KIT/572/wave_right05_stageii.npz
Output file: ../robot/ik_based/pkl/014125.pkl
Robot type: unitree_g1
Processing time: 15.32 seconds

STEP-BY-STEP TIMING:
  Step 1 - Load SMPLX:        3.90s
  Step 2 - Align FPS:         1.77s
  Step 3 - Init Retarget:     0.35s
  Step 4 - Init Visualization: 0.00s
  Step 5 - Process Frames:    9.24s (avg: 0.065s/frame)
  Step 6 - Convert Arrays:    0.00s
  Step 7 - Forward Kinematics: 0.02s
  Step 8 - Save Data:         0.00s
Status: SUCCESS
==================================================

=== SUCCESS LOG - 2025-10-14 17:31:31 ===
Input file: /data/retarget/locomotion/raw/AMASS_SMPLXG/KIT/572/wave_right08_stageii.npz
Output file: ../robot/ik_based/pkl/014128.pkl
Robot type: unitree_g1
Processing time: 17.80 seconds

STEP-BY-STEP TIMING:
  Step 1 - Load SMPLX:        2.34s
  Step 2 - Align FPS:         1.79s
  Step 3 - Init Retarget:     0.43s
  Step 4 - Init Visualization: 0.00s
  Step 5 - Process Frames:    12.48s (avg: 0.078s/frame)
  Step 6 - Convert Arrays:    0.00s
  Step 7 - Forward Kinematics: 0.40s
  Step 8 - Save Data:         0.01s
Status: SUCCESS
==================================================

=== SUCCESS LOG - 2025-10-14 17:31:31 ===
Input file: /data/retarget/locomotion/raw/AMASS_SMPLXG/KIT/572/wave_right07_stageii.npz
Output file: ../robot/ik_based/pkl/014127.pkl
Robot type: unitree_g1
Processing time: 19.26 seconds

STEP-BY-STEP TIMING:
  Step 1 - Load SMPLX:        1.72s
  Step 2 - Align FPS:         2.64s
  Step 3 - Init Retarget:     0.55s
  Step 4 - Init Visualization: 0.00s
  Step 5 - Process Frames:    14.02s (avg: 0.080s/frame)
  Step 6 - Convert Arrays:    0.00s
  Step 7 - Forward Kinematics: 0.21s
  Step 8 - Save Data:         0.00s
Status: SUCCESS
==================================================

=== SUCCESS LOG - 2025-10-14 17:31:31 ===
Input file: /data/retarget/locomotion/raw/AMASS_SMPLXG/KIT/572/wave_right06_stageii.npz
Output file: ../robot/ik_based/pkl/014126.pkl
Robot type: unitree_g1
Processing time: 19.67 seconds

STEP-BY-STEP TIMING:
  Step 1 - Load SMPLX:        1.86s
  Step 2 - Align FPS:         2.53s
  Step 3 - Init Retarget:     0.33s
  Step 4 - Init Visualization: 0.00s
  Step 5 - Process Frames:    14.83s (avg: 0.082s/frame)
  Step 6 - Convert Arrays:    0.00s
  Step 7 - Forward Kinematics: 0.09s
  Step 8 - Save Data:         0.00s
Status: SUCCESS
==================================================

=== SUCCESS LOG - 2025-10-14 17:31:52 ===
Input file: /data/retarget/locomotion/raw/AMASS_SMPLXG/KIT/572/wave_right10_stageii.npz
Output file: ../robot/ik_based/pkl/014130.pkl
Robot type: unitree_g1
Processing time: 20.45 seconds

STEP-BY-STEP TIMING:
  Step 1 - Load SMPLX:        1.49s
  Step 2 - Align FPS:         2.84s
  Step 3 - Init Retarget:     0.41s
  Step 4 - Init Visualization: 0.00s
  Step 5 - Process Frames:    15.17s (avg: 0.083s/frame)
  Step 6 - Convert Arrays:    0.00s
  Step 7 - Forward Kinematics: 0.30s
  Step 8 - Save Data:         0.00s
Status: SUCCESS
==================================================

=== SUCCESS LOG - 2025-10-14 17:31:52 ===
Input file: /data/retarget/locomotion/raw/AMASS_SMPLXG/KIT/572/wave_right09_stageii.npz
Output file: ../robot/ik_based/pkl/014129.pkl
Robot type: unitree_g1
Processing time: 21.27 seconds

STEP-BY-STEP TIMING:
  Step 1 - Load SMPLX:        1.65s
  Step 2 - Align FPS:         3.32s
  Step 3 - Init Retarget:     0.47s
  Step 4 - Init Visualization: 0.00s
  Step 5 - Process Frames:    15.24s (avg: 0.083s/frame)
  Step 6 - Convert Arrays:    0.00s
  Step 7 - Forward Kinematics: 0.24s
  Step 8 - Save Data:         0.00s
Status: SUCCESS
==================================================

=== SUCCESS LOG - 2025-10-14 17:31:54 ===
Input file: /data/retarget/locomotion/raw/AMASS_SMPLXG/KIT/572/wave_right11_stageii.npz
Output file: ../robot/ik_based/pkl/014131.pkl
Robot type: unitree_g1
Processing time: 21.89 seconds

STEP-BY-STEP TIMING:
  Step 1 - Load SMPLX:        1.77s
  Step 2 - Align FPS:         2.78s
  Step 3 - Init Retarget:     0.33s
  Step 4 - Init Visualization: 0.00s
  Step 5 - Process Frames:    16.94s (avg: 0.076s/frame)
  Step 6 - Convert Arrays:    0.00s
  Step 7 - Forward Kinematics: 0.02s
  Step 8 - Save Data:         0.00s
Status: SUCCESS
==================================================

=== SUCCESS LOG - 2025-10-14 17:32:23 ===
Input file: /data/retarget/locomotion/raw/AMASS_SMPLXG/KIT/572/wave_right12_stageii.npz
Output file: ../robot/ik_based/pkl/014132.pkl
Robot type: unitree_g1
Processing time: 30.71 seconds

STEP-BY-STEP TIMING:
  Step 1 - Load SMPLX:        2.11s
  Step 2 - Align FPS:         4.34s
  Step 3 - Init Retarget:     0.31s
  Step 4 - Init Visualization: 0.00s
  Step 5 - Process Frames:    23.45s (avg: 0.088s/frame)
  Step 6 - Convert Arrays:    0.00s
  Step 7 - Forward Kinematics: 0.33s
  Step 8 - Save Data:         0.00s
Status: SUCCESS
==================================================

=== SUCCESS LOG - 2025-10-14 17:32:23 ===
Input file: /data/retarget/locomotion/raw/AMASS_SMPLXG/KIT/572/wave_right13_stageii.npz
Output file: ../robot/ik_based/pkl/014133.pkl
Robot type: unitree_g1
Processing time: 30.70 seconds

STEP-BY-STEP TIMING:
  Step 1 - Load SMPLX:        2.07s
  Step 2 - Align FPS:         5.24s
  Step 3 - Init Retarget:     0.27s
  Step 4 - Init Visualization: 0.00s
  Step 5 - Process Frames:    22.69s (avg: 0.091s/frame)
  Step 6 - Convert Arrays:    0.00s
  Step 7 - Forward Kinematics: 0.22s
  Step 8 - Save Data:         0.00s
Status: SUCCESS
==================================================

=== SUCCESS LOG - 2025-10-14 17:32:24 ===
Input file: /data/retarget/locomotion/raw/AMASS_SMPLXG/KIT/572/wave_right14_stageii.npz
Output file: ../robot/ik_based/pkl/014134.pkl
Robot type: unitree_g1
Processing time: 29.77 seconds

STEP-BY-STEP TIMING:
  Step 1 - Load SMPLX:        2.39s
  Step 2 - Align FPS:         3.80s
  Step 3 - Init Retarget:     0.33s
  Step 4 - Init Visualization: 0.00s
  Step 5 - Process Frames:    22.80s (avg: 0.087s/frame)
  Step 6 - Convert Arrays:    0.00s
  Step 7 - Forward Kinematics: 0.34s
  Step 8 - Save Data:         0.00s
Status: SUCCESS
==================================================

=== SUCCESS LOG - 2025-10-14 17:32:37 ===
Input file: /data/retarget/locomotion/raw/AMASS_SMPLXG/KIT/572/wipe_circular_left01_stageii.npz
Output file: ../robot/ik_based/pkl/014136.pkl
Robot type: unitree_g1
Processing time: 12.72 seconds

STEP-BY-STEP TIMING:
  Step 1 - Load SMPLX:        1.14s
  Step 2 - Align FPS:         1.16s
  Step 3 - Init Retarget:     0.61s
  Step 4 - Init Visualization: 0.00s
  Step 5 - Process Frames:    8.70s (avg: 0.081s/frame)
  Step 6 - Convert Arrays:    0.00s
  Step 7 - Forward Kinematics: 0.62s
  Step 8 - Save Data:         0.02s
Status: SUCCESS
==================================================

=== SUCCESS LOG - 2025-10-14 17:32:38 ===
Input file: /data/retarget/locomotion/raw/AMASS_SMPLXG/KIT/572/wipe_circular_left02_stageii.npz
Output file: ../robot/ik_based/pkl/014137.pkl
Robot type: unitree_g1
Processing time: 14.46 seconds

STEP-BY-STEP TIMING:
  Step 1 - Load SMPLX:        1.32s
  Step 2 - Align FPS:         2.40s
  Step 3 - Init Retarget:     0.70s
  Step 4 - Init Visualization: 0.00s
  Step 5 - Process Frames:    9.63s (avg: 0.072s/frame)
  Step 6 - Convert Arrays:    0.00s
  Step 7 - Forward Kinematics: 0.22s
  Step 8 - Save Data:         0.00s
Status: SUCCESS
==================================================

=== SUCCESS LOG - 2025-10-14 17:32:45 ===
Input file: /data/retarget/locomotion/raw/AMASS_SMPLXG/KIT/572/wave_right15_stageii.npz
Output file: ../robot/ik_based/pkl/014135.pkl
Robot type: unitree_g1
Processing time: 21.27 seconds

STEP-BY-STEP TIMING:
  Step 1 - Load SMPLX:        1.53s
  Step 2 - Align FPS:         3.22s
  Step 3 - Init Retarget:     0.31s
  Step 4 - Init Visualization: 0.00s
  Step 5 - Process Frames:    15.06s (avg: 0.061s/frame)
  Step 6 - Convert Arrays:    0.00s
  Step 7 - Forward Kinematics: 0.66s
  Step 8 - Save Data:         0.01s
Status: SUCCESS
==================================================

=== SUCCESS LOG - 2025-10-14 17:32:49 ===
Input file: /data/retarget/locomotion/raw/AMASS_SMPLXG/KIT/572/wipe_circular_left03_stageii.npz
Output file: ../robot/ik_based/pkl/014138.pkl
Robot type: unitree_g1
Processing time: 12.55 seconds

STEP-BY-STEP TIMING:
  Step 1 - Load SMPLX:        3.35s
  Step 2 - Align FPS:         1.11s
  Step 3 - Init Retarget:     0.33s
  Step 4 - Init Visualization: 0.00s
  Step 5 - Process Frames:    7.38s (avg: 0.059s/frame)
  Step 6 - Convert Arrays:    0.00s
  Step 7 - Forward Kinematics: 0.19s
  Step 8 - Save Data:         0.00s
Status: SUCCESS
==================================================

=== SUCCESS LOG - 2025-10-14 17:32:50 ===
Input file: /data/retarget/locomotion/raw/AMASS_SMPLXG/KIT/572/wipe_circular_left04_stageii.npz
Output file: ../robot/ik_based/pkl/014139.pkl
Robot type: unitree_g1
Processing time: 11.08 seconds

STEP-BY-STEP TIMING:
  Step 1 - Load SMPLX:        3.44s
  Step 2 - Align FPS:         0.86s
  Step 3 - Init Retarget:     0.31s
  Step 4 - Init Visualization: 0.01s
  Step 5 - Process Frames:    6.40s (avg: 0.054s/frame)
  Step 6 - Convert Arrays:    0.00s
  Step 7 - Forward Kinematics: 0.02s
  Step 8 - Save Data:         0.00s
Status: SUCCESS
==================================================

=== SUCCESS LOG - 2025-10-14 17:32:59 ===
Input file: /data/retarget/locomotion/raw/AMASS_SMPLXG/KIT/572/wipe_circular_left05_stageii.npz
Output file: ../robot/ik_based/pkl/014140.pkl
Robot type: unitree_g1
Processing time: 13.89 seconds

STEP-BY-STEP TIMING:
  Step 1 - Load SMPLX:        4.62s
  Step 2 - Align FPS:         0.73s
  Step 3 - Init Retarget:     0.20s
  Step 4 - Init Visualization: 0.00s
  Step 5 - Process Frames:    7.04s (avg: 0.057s/frame)
  Step 6 - Convert Arrays:    0.00s
  Step 7 - Forward Kinematics: 0.71s
  Step 8 - Save Data:         0.01s
Status: SUCCESS
==================================================

=== SUCCESS LOG - 2025-10-14 17:33:04 ===
Input file: /data/retarget/locomotion/raw/AMASS_SMPLXG/KIT/572/wipe_circular_left06_stageii.npz
Output file: ../robot/ik_based/pkl/014141.pkl
Robot type: unitree_g1
Processing time: 14.74 seconds

STEP-BY-STEP TIMING:
  Step 1 - Load SMPLX:        2.76s
  Step 2 - Align FPS:         1.05s
  Step 3 - Init Retarget:     0.47s
  Step 4 - Init Visualization: 0.01s
  Step 5 - Process Frames:    9.98s (avg: 0.065s/frame)
  Step 6 - Convert Arrays:    0.00s
  Step 7 - Forward Kinematics: 0.27s
  Step 8 - Save Data:         0.01s
Status: SUCCESS
==================================================

=== SUCCESS LOG - 2025-10-14 17:33:06 ===
Input file: /data/retarget/locomotion/raw/AMASS_SMPLXG/KIT/572/wipe_circular_left07_stageii.npz
Output file: ../robot/ik_based/pkl/014142.pkl
Robot type: unitree_g1
Processing time: 16.44 seconds

STEP-BY-STEP TIMING:
  Step 1 - Load SMPLX:        3.59s
  Step 2 - Align FPS:         2.10s
  Step 3 - Init Retarget:     0.30s
  Step 4 - Init Visualization: 0.00s
  Step 5 - Process Frames:    10.39s (avg: 0.063s/frame)
  Step 6 - Convert Arrays:    0.00s
  Step 7 - Forward Kinematics: 0.02s
  Step 8 - Save Data:         0.00s
Status: SUCCESS
==================================================

=== SUCCESS LOG - 2025-10-14 17:33:15 ===
Input file: /data/retarget/locomotion/raw/AMASS_SMPLXG/KIT/572/wipe_circular_left08_stageii.npz
Output file: ../robot/ik_based/pkl/014143.pkl
Robot type: unitree_g1
Processing time: 15.92 seconds

STEP-BY-STEP TIMING:
  Step 1 - Load SMPLX:        5.14s
  Step 2 - Align FPS:         1.65s
  Step 3 - Init Retarget:     0.36s
  Step 4 - Init Visualization: 0.00s
  Step 5 - Process Frames:    7.96s (avg: 0.049s/frame)
  Step 6 - Convert Arrays:    0.00s
  Step 7 - Forward Kinematics: 0.41s
  Step 8 - Save Data:         0.01s
Status: SUCCESS
==================================================

=== SUCCESS LOG - 2025-10-14 17:33:24 ===
Input file: /data/retarget/locomotion/raw/AMASS_SMPLXG/KIT/572/wipe_circular_left09_stageii.npz
Output file: ../robot/ik_based/pkl/014144.pkl
Robot type: unitree_g1
Processing time: 18.68 seconds

STEP-BY-STEP TIMING:
  Step 1 - Load SMPLX:        3.72s
  Step 2 - Align FPS:         1.45s
  Step 3 - Init Retarget:     0.29s
  Step 4 - Init Visualization: 0.00s
  Step 5 - Process Frames:    12.35s (avg: 0.073s/frame)
  Step 6 - Convert Arrays:    0.00s
  Step 7 - Forward Kinematics: 0.46s
  Step 8 - Save Data:         0.01s
Status: SUCCESS
==================================================

=== SUCCESS LOG - 2025-10-14 17:33:26 ===
Input file: /data/retarget/locomotion/raw/AMASS_SMPLXG/KIT/572/wipe_circular_left10_stageii.npz
Output file: ../robot/ik_based/pkl/014145.pkl
Robot type: unitree_g1
Processing time: 18.95 seconds

STEP-BY-STEP TIMING:
  Step 1 - Load SMPLX:        3.87s
  Step 2 - Align FPS:         2.92s
  Step 3 - Init Retarget:     0.30s
  Step 4 - Init Visualization: 0.00s
  Step 5 - Process Frames:    11.50s (avg: 0.064s/frame)
  Step 6 - Convert Arrays:    0.00s
  Step 7 - Forward Kinematics: 0.20s
  Step 8 - Save Data:         0.01s
Status: SUCCESS
==================================================

=== SUCCESS LOG - 2025-10-14 17:33:33 ===
Input file: /data/retarget/locomotion/raw/AMASS_SMPLXG/KIT/572/wipe_circular_left11_stageii.npz
Output file: ../robot/ik_based/pkl/014146.pkl
Robot type: unitree_g1
Processing time: 17.34 seconds

STEP-BY-STEP TIMING:
  Step 1 - Load SMPLX:        5.01s
  Step 2 - Align FPS:         2.39s
  Step 3 - Init Retarget:     0.23s
  Step 4 - Init Visualization: 0.00s
  Step 5 - Process Frames:    9.13s (avg: 0.056s/frame)
  Step 6 - Convert Arrays:    0.00s
  Step 7 - Forward Kinematics: 0.29s
  Step 8 - Save Data:         0.01s
Status: SUCCESS
==================================================

=== SUCCESS LOG - 2025-10-14 17:33:45 ===
Input file: /data/retarget/locomotion/raw/AMASS_SMPLXG/KIT/572/wipe_circular_left12_stageii.npz
Output file: ../robot/ik_based/pkl/014147.pkl
Robot type: unitree_g1
Processing time: 21.51 seconds

STEP-BY-STEP TIMING:
  Step 1 - Load SMPLX:        3.33s
  Step 2 - Align FPS:         1.62s
  Step 3 - Init Retarget:     0.37s
  Step 4 - Init Visualization: 0.00s
  Step 5 - Process Frames:    15.07s (avg: 0.078s/frame)
  Step 6 - Convert Arrays:    0.00s
  Step 7 - Forward Kinematics: 0.54s
  Step 8 - Save Data:         0.02s
Status: SUCCESS
==================================================

=== SUCCESS LOG - 2025-10-14 17:33:48 ===
Input file: /data/retarget/locomotion/raw/AMASS_SMPLXG/KIT/572/wipe_circular_left13_stageii.npz
Output file: ../robot/ik_based/pkl/014148.pkl
Robot type: unitree_g1
Processing time: 22.37 seconds

STEP-BY-STEP TIMING:
  Step 1 - Load SMPLX:        3.72s
  Step 2 - Align FPS:         3.16s
  Step 3 - Init Retarget:     0.27s
  Step 4 - Init Visualization: 0.00s
  Step 5 - Process Frames:    14.84s (avg: 0.065s/frame)
  Step 6 - Convert Arrays:    0.00s
  Step 7 - Forward Kinematics: 0.20s
  Step 8 - Save Data:         0.00s
Status: SUCCESS
==================================================

=== SUCCESS LOG - 2025-10-14 17:33:58 ===
Input file: /data/retarget/locomotion/raw/AMASS_SMPLXG/KIT/572/wipe_circular_left14_stageii.npz
Output file: ../robot/ik_based/pkl/014149.pkl
Robot type: unitree_g1
Processing time: 24.25 seconds

STEP-BY-STEP TIMING:
  Step 1 - Load SMPLX:        5.28s
  Step 2 - Align FPS:         2.73s
  Step 3 - Init Retarget:     0.37s
  Step 4 - Init Visualization: 0.00s
  Step 5 - Process Frames:    14.69s (avg: 0.062s/frame)
  Step 6 - Convert Arrays:    0.00s
  Step 7 - Forward Kinematics: 0.59s
  Step 8 - Save Data:         0.02s
Status: SUCCESS
==================================================

=== SUCCESS LOG - 2025-10-14 17:34:11 ===
Input file: /data/retarget/locomotion/raw/AMASS_SMPLXG/KIT/572/wipe_circular_left15_stageii.npz
Output file: ../robot/ik_based/pkl/014150.pkl
Robot type: unitree_g1
Processing time: 25.17 seconds

STEP-BY-STEP TIMING:
  Step 1 - Load SMPLX:        3.91s
  Step 2 - Align FPS:         2.14s
  Step 3 - Init Retarget:     0.30s
  Step 4 - Init Visualization: 0.00s
  Step 5 - Process Frames:    17.84s (avg: 0.077s/frame)
  Step 6 - Convert Arrays:    0.00s
  Step 7 - Forward Kinematics: 0.54s
  Step 8 - Save Data:         0.01s
Status: SUCCESS
==================================================

=== SUCCESS LOG - 2025-10-14 17:34:14 ===
Input file: /data/retarget/locomotion/raw/AMASS_SMPLXG/KIT/572/wipe_circular_right01_stageii.npz
Output file: ../robot/ik_based/pkl/014152.pkl
Robot type: unitree_g1
Processing time: 15.89 seconds

STEP-BY-STEP TIMING:
  Step 1 - Load SMPLX:        4.75s
  Step 2 - Align FPS:         1.77s
  Step 3 - Init Retarget:     0.37s
  Step 4 - Init Visualization: 0.00s
  Step 5 - Process Frames:    8.71s (avg: 0.069s/frame)
  Step 6 - Convert Arrays:    0.00s
  Step 7 - Forward Kinematics: 0.13s
  Step 8 - Save Data:         0.00s
Status: SUCCESS
==================================================

=== SUCCESS LOG - 2025-10-14 17:34:14 ===
Input file: /data/retarget/locomotion/raw/AMASS_SMPLXG/KIT/572/wipe_circular_left16_stageii.npz
Output file: ../robot/ik_based/pkl/014151.pkl
Robot type: unitree_g1
Processing time: 25.63 seconds

STEP-BY-STEP TIMING:
  Step 1 - Load SMPLX:        4.29s
  Step 2 - Align FPS:         3.28s
  Step 3 - Init Retarget:     0.32s
  Step 4 - Init Visualization: 0.00s
  Step 5 - Process Frames:    17.38s (avg: 0.068s/frame)
  Step 6 - Convert Arrays:    0.00s
  Step 7 - Forward Kinematics: 0.04s
  Step 8 - Save Data:         0.00s
Status: SUCCESS
==================================================

=== SUCCESS LOG - 2025-10-14 17:34:30 ===
Input file: /data/retarget/locomotion/raw/AMASS_SMPLXG/KIT/572/wipe_circular_right02_stageii.npz
Output file: ../robot/ik_based/pkl/014153.pkl
Robot type: unitree_g1
Processing time: 18.97 seconds

STEP-BY-STEP TIMING:
  Step 1 - Load SMPLX:        3.66s
  Step 2 - Align FPS:         0.89s
  Step 3 - Init Retarget:     0.46s
  Step 4 - Init Visualization: 0.00s
  Step 5 - Process Frames:    13.29s (avg: 0.101s/frame)
  Step 6 - Convert Arrays:    0.00s
  Step 7 - Forward Kinematics: 0.40s
  Step 8 - Save Data:         0.00s
Status: SUCCESS
==================================================

=== SUCCESS LOG - 2025-10-14 17:34:30 ===
Input file: /data/retarget/locomotion/raw/AMASS_SMPLXG/KIT/572/wipe_circular_right03_stageii.npz
Output file: ../robot/ik_based/pkl/014154.pkl
Robot type: unitree_g1
Processing time: 16.13 seconds

STEP-BY-STEP TIMING:
  Step 1 - Load SMPLX:        1.90s
  Step 2 - Align FPS:         1.79s
  Step 3 - Init Retarget:     0.39s
  Step 4 - Init Visualization: 0.00s
  Step 5 - Process Frames:    11.44s (avg: 0.094s/frame)
  Step 6 - Convert Arrays:    0.00s
  Step 7 - Forward Kinematics: 0.31s
  Step 8 - Save Data:         0.01s
Status: SUCCESS
==================================================

=== SUCCESS LOG - 2025-10-14 17:34:31 ===
Input file: /data/retarget/locomotion/raw/AMASS_SMPLXG/KIT/572/wipe_circular_right04_stageii.npz
Output file: ../robot/ik_based/pkl/014155.pkl
Robot type: unitree_g1
Processing time: 16.34 seconds

STEP-BY-STEP TIMING:
  Step 1 - Load SMPLX:        1.99s
  Step 2 - Align FPS:         2.02s
  Step 3 - Init Retarget:     0.31s
  Step 4 - Init Visualization: 0.00s
  Step 5 - Process Frames:    11.97s (avg: 0.086s/frame)
  Step 6 - Convert Arrays:    0.00s
  Step 7 - Forward Kinematics: 0.03s
  Step 8 - Save Data:         0.00s
Status: SUCCESS
==================================================

=== SUCCESS LOG - 2025-10-14 17:34:45 ===
Input file: /data/retarget/locomotion/raw/AMASS_SMPLXG/KIT/572/wipe_circular_right06_stageii.npz
Output file: ../robot/ik_based/pkl/014157.pkl
Robot type: unitree_g1
Processing time: 14.54 seconds

STEP-BY-STEP TIMING:
  Step 1 - Load SMPLX:        1.26s
  Step 2 - Align FPS:         1.94s
  Step 3 - Init Retarget:     0.24s
  Step 4 - Init Visualization: 0.00s
  Step 5 - Process Frames:    10.39s (avg: 0.072s/frame)
  Step 6 - Convert Arrays:    0.00s
  Step 7 - Forward Kinematics: 0.38s
  Step 8 - Save Data:         0.01s
Status: SUCCESS
==================================================

=== SUCCESS LOG - 2025-10-14 17:34:45 ===
Input file: /data/retarget/locomotion/raw/AMASS_SMPLXG/KIT/572/wipe_circular_right05_stageii.npz
Output file: ../robot/ik_based/pkl/014156.pkl
Robot type: unitree_g1
Processing time: 14.92 seconds

STEP-BY-STEP TIMING:
  Step 1 - Load SMPLX:        1.27s
  Step 2 - Align FPS:         2.68s
  Step 3 - Init Retarget:     0.30s
  Step 4 - Init Visualization: 0.00s
  Step 5 - Process Frames:    10.07s (avg: 0.077s/frame)
  Step 6 - Convert Arrays:    0.00s
  Step 7 - Forward Kinematics: 0.30s
  Step 8 - Save Data:         0.01s
Status: SUCCESS
==================================================

=== SUCCESS LOG - 2025-10-14 17:34:46 ===
Input file: /data/retarget/locomotion/raw/AMASS_SMPLXG/KIT/572/wipe_circular_right07_stageii.npz
Output file: ../robot/ik_based/pkl/014158.pkl
Robot type: unitree_g1
Processing time: 14.82 seconds

STEP-BY-STEP TIMING:
  Step 1 - Load SMPLX:        1.75s
  Step 2 - Align FPS:         2.01s
  Step 3 - Init Retarget:     0.29s
  Step 4 - Init Visualization: 0.00s
  Step 5 - Process Frames:    10.71s (avg: 0.081s/frame)
  Step 6 - Convert Arrays:    0.00s
  Step 7 - Forward Kinematics: 0.02s
  Step 8 - Save Data:         0.00s
Status: SUCCESS
==================================================

=== SUCCESS LOG - 2025-10-14 17:35:03 ===
Input file: /data/retarget/locomotion/raw/AMASS_SMPLXG/KIT/572/wipe_circular_right10_stageii.npz
Output file: ../robot/ik_based/pkl/014161.pkl
Robot type: unitree_g1
Processing time: 17.64 seconds

STEP-BY-STEP TIMING:
  Step 1 - Load SMPLX:        1.76s
  Step 2 - Align FPS:         2.22s
  Step 3 - Init Retarget:     0.33s
  Step 4 - Init Visualization: 0.00s
  Step 5 - Process Frames:    13.18s (avg: 0.084s/frame)
  Step 6 - Convert Arrays:    0.00s
  Step 7 - Forward Kinematics: 0.10s
  Step 8 - Save Data:         0.00s
Status: SUCCESS
==================================================

=== SUCCESS LOG - 2025-10-14 17:35:03 ===
Input file: /data/retarget/locomotion/raw/AMASS_SMPLXG/KIT/572/wipe_circular_right09_stageii.npz
Output file: ../robot/ik_based/pkl/014160.pkl
Robot type: unitree_g1
Processing time: 17.97 seconds

STEP-BY-STEP TIMING:
  Step 1 - Load SMPLX:        1.30s
  Step 2 - Align FPS:         2.68s
  Step 3 - Init Retarget:     0.32s
  Step 4 - Init Visualization: 0.00s
  Step 5 - Process Frames:    13.48s (avg: 0.084s/frame)
  Step 6 - Convert Arrays:    0.00s
  Step 7 - Forward Kinematics: 0.08s
  Step 8 - Save Data:         0.00s
Status: SUCCESS
==================================================

=== SUCCESS LOG - 2025-10-14 17:35:04 ===
Input file: /data/retarget/locomotion/raw/AMASS_SMPLXG/KIT/572/wipe_circular_right08_stageii.npz
Output file: ../robot/ik_based/pkl/014159.pkl
Robot type: unitree_g1
Processing time: 18.15 seconds

STEP-BY-STEP TIMING:
  Step 1 - Load SMPLX:        1.31s
  Step 2 - Align FPS:         2.48s
  Step 3 - Init Retarget:     0.55s
  Step 4 - Init Visualization: 0.00s
  Step 5 - Process Frames:    13.57s (avg: 0.092s/frame)
  Step 6 - Convert Arrays:    0.00s
  Step 7 - Forward Kinematics: 0.03s
  Step 8 - Save Data:         0.02s
Status: SUCCESS
==================================================

=== SUCCESS LOG - 2025-10-14 17:38:56 ===
Input file: /data/retarget/locomotion/raw/AMASS_SMPLXG/KIT/575/MarcusS_AdrianM09_stageii.npz
Output file: ../robot/ik_based/pkl/014163.pkl
Robot type: unitree_g1
Processing time: 232.13 seconds

STEP-BY-STEP TIMING:
  Step 1 - Load SMPLX:        6.01s
  Step 2 - Align FPS:         36.36s
  Step 3 - Init Retarget:     0.48s
  Step 4 - Init Visualization: 0.00s
  Step 5 - Process Frames:    188.34s (avg: 0.101s/frame)
  Step 6 - Convert Arrays:    0.01s
  Step 7 - Forward Kinematics: 0.48s
  Step 8 - Save Data:         0.01s
Status: SUCCESS
==================================================

=== SUCCESS LOG - 2025-10-14 17:40:58 ===
Input file: /data/retarget/locomotion/raw/AMASS_SMPLXG/KIT/575/MarcusS_AdrianM11_stageii.npz
Output file: ../robot/ik_based/pkl/014164.pkl
Robot type: unitree_g1
Processing time: 353.53 seconds

STEP-BY-STEP TIMING:
  Step 1 - Load SMPLX:        6.95s
  Step 2 - Align FPS:         57.11s
  Step 3 - Init Retarget:     0.56s
  Step 4 - Init Visualization: 0.00s
  Step 5 - Process Frames:    287.73s (avg: 0.098s/frame)
  Step 6 - Convert Arrays:    0.01s
  Step 7 - Forward Kinematics: 0.70s
  Step 8 - Save Data:         0.02s
Status: SUCCESS
==================================================

=== ERROR LOG - 2025-10-14 17:41:03 ===
Input file: /data/retarget/locomotion/raw/AMASS_SMPLXG/KIT/575/male_stagei.npz
Output file: ../robot/ik_based/pkl/014166.pkl
Robot type: unitree_g1
Processing time: 3.56 seconds
Error message: 'pose_body is not a file in the archive'
Error type: KeyError
==================================================

=== SUCCESS LOG - 2025-10-14 17:46:47 ===
Input file: /data/retarget/locomotion/raw/AMASS_SMPLXG/KIT/575/MarcusS_AdrianM05_stageii.npz
Output file: ../robot/ik_based/pkl/014162.pkl
Robot type: unitree_g1
Processing time: 703.28 seconds

STEP-BY-STEP TIMING:
  Step 1 - Load SMPLX:        11.09s
  Step 2 - Align FPS:         87.75s
  Step 3 - Init Retarget:     0.34s
  Step 4 - Init Visualization: 0.00s
  Step 5 - Process Frames:    603.03s (avg: 0.092s/frame)
  Step 6 - Convert Arrays:    0.03s
  Step 7 - Forward Kinematics: 0.50s
  Step 8 - Save Data:         0.03s
Status: SUCCESS
==================================================

=== SUCCESS LOG - 2025-10-14 17:49:58 ===
Input file: /data/retarget/locomotion/raw/AMASS_SMPLXG/KIT/576/MarcusS_AdrianM09_stageii.npz
Output file: ../robot/ik_based/pkl/014168.pkl
Robot type: unitree_g1
Processing time: 187.31 seconds

STEP-BY-STEP TIMING:
  Step 1 - Load SMPLX:        7.29s
  Step 2 - Align FPS:         18.98s
  Step 3 - Init Retarget:     0.35s
  Step 4 - Init Visualization: 0.00s
  Step 5 - Process Frames:    159.73s (avg: 0.085s/frame)
  Step 6 - Convert Arrays:    0.01s
  Step 7 - Forward Kinematics: 0.53s
  Step 8 - Save Data:         0.02s
Status: SUCCESS
==================================================

=== SUCCESS LOG - 2025-10-14 17:51:10 ===
Input file: /data/retarget/locomotion/raw/AMASS_SMPLXG/KIT/576/MarcusS_AdrianM05_stageii.npz
Output file: ../robot/ik_based/pkl/014167.pkl
Robot type: unitree_g1
Processing time: 607.26 seconds

STEP-BY-STEP TIMING:
  Step 1 - Load SMPLX:        9.81s
  Step 2 - Align FPS:         62.05s
  Step 3 - Init Retarget:     0.40s
  Step 4 - Init Visualization: 0.00s
  Step 5 - Process Frames:    534.23s (avg: 0.081s/frame)
  Step 6 - Convert Arrays:    0.03s
  Step 7 - Forward Kinematics: 0.31s
  Step 8 - Save Data:         0.02s
Status: SUCCESS
==================================================

=== SUCCESS LOG - 2025-10-14 17:54:59 ===
Input file: /data/retarget/locomotion/raw/AMASS_SMPLXG/KIT/576/MarcusS_AdrianM11_stageii.npz
Output file: ../robot/ik_based/pkl/014169.pkl
Robot type: unitree_g1
Processing time: 300.17 seconds

STEP-BY-STEP TIMING:
  Step 1 - Load SMPLX:        7.74s
  Step 2 - Align FPS:         26.03s
  Step 3 - Init Retarget:     0.42s
  Step 4 - Init Visualization: 0.00s
  Step 5 - Process Frames:    264.97s (avg: 0.090s/frame)
  Step 6 - Convert Arrays:    0.01s
  Step 7 - Forward Kinematics: 0.44s
  Step 8 - Save Data:         0.02s
Status: SUCCESS
==================================================

=== ERROR LOG - 2025-10-14 17:55:06 ===
Input file: /data/retarget/locomotion/raw/AMASS_SMPLXG/KIT/576/male_stagei.npz
Output file: ../robot/ik_based/pkl/014171.pkl
Robot type: unitree_g1
Processing time: 4.96 seconds
Error message: 'pose_body is not a file in the archive'
Error type: KeyError
==================================================

=== SUCCESS LOG - 2025-10-14 17:55:34 ===
Input file: /data/retarget/locomotion/raw/AMASS_SMPLXG/KIT/6/WalkInClockwiseCircle05_1_stageii.npz
Output file: ../robot/ik_based/pkl/014196.pkl
Robot type: unitree_g1
Processing time: 28.04 seconds

STEP-BY-STEP TIMING:
  Step 1 - Load SMPLX:        4.90s
  Step 2 - Align FPS:         2.49s
  Step 3 - Init Retarget:     0.45s
  Step 4 - Init Visualization: 0.00s
  Step 5 - Process Frames:    19.12s (avg: 0.104s/frame)
  Step 6 - Convert Arrays:    0.00s
  Step 7 - Forward Kinematics: 0.57s
  Step 8 - Save Data:         0.01s
Status: SUCCESS
==================================================

=== SUCCESS LOG - 2025-10-14 17:56:04 ===
Input file: /data/retarget/locomotion/raw/AMASS_SMPLXG/KIT/6/WalkInClockwiseCircle06_1_stageii.npz
Output file: ../robot/ik_based/pkl/014197.pkl
Robot type: unitree_g1
Processing time: 28.90 seconds

STEP-BY-STEP TIMING:
  Step 1 - Load SMPLX:        4.62s
  Step 2 - Align FPS:         3.76s
  Step 3 - Init Retarget:     0.31s
  Step 4 - Init Visualization: 0.00s
  Step 5 - Process Frames:    19.36s (avg: 0.106s/frame)
  Step 6 - Convert Arrays:    0.00s
  Step 7 - Forward Kinematics: 0.52s
  Step 8 - Save Data:         0.01s
Status: SUCCESS
==================================================

=== SUCCESS LOG - 2025-10-14 17:56:11 ===
Input file: /data/retarget/locomotion/raw/AMASS_SMPLXG/KIT/575/MarcusS_AdrianM12_stageii.npz
Output file: ../robot/ik_based/pkl/014165.pkl
Robot type: unitree_g1
Processing time: 1033.29 seconds

STEP-BY-STEP TIMING:
  Step 1 - Load SMPLX:        10.39s
  Step 2 - Align FPS:         48.73s
  Step 3 - Init Retarget:     0.36s
  Step 4 - Init Visualization: 0.00s
  Step 5 - Process Frames:    972.91s (avg: 0.171s/frame)
  Step 6 - Convert Arrays:    0.04s
  Step 7 - Forward Kinematics: 0.49s
  Step 8 - Save Data:         0.02s
Status: SUCCESS
==================================================

=== SUCCESS LOG - 2025-10-14 17:56:28 ===
Input file: /data/retarget/locomotion/raw/AMASS_SMPLXG/KIT/6/WalkInClockwiseCircle07_1_stageii.npz
Output file: ../robot/ik_based/pkl/014198.pkl
Robot type: unitree_g1
Processing time: 23.40 seconds

STEP-BY-STEP TIMING:
  Step 1 - Load SMPLX:        4.88s
  Step 2 - Align FPS:         2.02s
  Step 3 - Init Retarget:     0.44s
  Step 4 - Init Visualization: 0.00s
  Step 5 - Process Frames:    14.93s (avg: 0.083s/frame)
  Step 6 - Convert Arrays:    0.00s
  Step 7 - Forward Kinematics: 0.64s
  Step 8 - Save Data:         0.01s
Status: SUCCESS
==================================================

=== SUCCESS LOG - 2025-10-14 17:56:38 ===
Input file: /data/retarget/locomotion/raw/AMASS_SMPLXG/KIT/6/WalkInClockwiseCircle08_1_stageii.npz
Output file: ../robot/ik_based/pkl/014199.pkl
Robot type: unitree_g1
Processing time: 24.52 seconds

STEP-BY-STEP TIMING:
  Step 1 - Load SMPLX:        4.69s
  Step 2 - Align FPS:         3.05s
  Step 3 - Init Retarget:     0.32s
  Step 4 - Init Visualization: 0.00s
  Step 5 - Process Frames:    15.39s (avg: 0.085s/frame)
  Step 6 - Convert Arrays:    0.00s
  Step 7 - Forward Kinematics: 0.53s
  Step 8 - Save Data:         0.01s
Status: SUCCESS
==================================================

=== SUCCESS LOG - 2025-10-14 17:56:50 ===
Input file: /data/retarget/locomotion/raw/AMASS_SMPLXG/KIT/6/WalkInClockwiseCircle09_stageii.npz
Output file: ../robot/ik_based/pkl/014200.pkl
Robot type: unitree_g1
Processing time: 22.08 seconds

STEP-BY-STEP TIMING:
  Step 1 - Load SMPLX:        4.48s
  Step 2 - Align FPS:         2.40s
  Step 3 - Init Retarget:     0.26s
  Step 4 - Init Visualization: 0.00s
  Step 5 - Process Frames:    13.84s (avg: 0.079s/frame)
  Step 6 - Convert Arrays:    0.00s
  Step 7 - Forward Kinematics: 0.55s
  Step 8 - Save Data:         0.01s
Status: SUCCESS
==================================================

=== SUCCESS LOG - 2025-10-14 17:57:01 ===
Input file: /data/retarget/locomotion/raw/AMASS_SMPLXG/KIT/6/WalkInClockwiseCircle10_stageii.npz
Output file: ../robot/ik_based/pkl/014201.pkl
Robot type: unitree_g1
Processing time: 23.36 seconds

STEP-BY-STEP TIMING:
  Step 1 - Load SMPLX:        4.39s
  Step 2 - Align FPS:         2.53s
  Step 3 - Init Retarget:     0.28s
  Step 4 - Init Visualization: 0.00s
  Step 5 - Process Frames:    14.75s (avg: 0.081s/frame)
  Step 6 - Convert Arrays:    0.00s
  Step 7 - Forward Kinematics: 0.76s
  Step 8 - Save Data:         0.01s
Status: SUCCESS
==================================================

=== SUCCESS LOG - 2025-10-14 17:57:15 ===
Input file: /data/retarget/locomotion/raw/AMASS_SMPLXG/KIT/6/WalkInCounterClockwiseCircle01_1_stageii.npz
Output file: ../robot/ik_based/pkl/014202.pkl
Robot type: unitree_g1
Processing time: 25.06 seconds

STEP-BY-STEP TIMING:
  Step 1 - Load SMPLX:        5.07s
  Step 2 - Align FPS:         2.37s
  Step 3 - Init Retarget:     0.33s
  Step 4 - Init Visualization: 0.00s
  Step 5 - Process Frames:    16.12s (avg: 0.079s/frame)
  Step 6 - Convert Arrays:    0.00s
  Step 7 - Forward Kinematics: 0.57s
  Step 8 - Save Data:         0.02s
Status: SUCCESS
==================================================

=== SUCCESS LOG - 2025-10-14 17:57:25 ===
Input file: /data/retarget/locomotion/raw/AMASS_SMPLXG/KIT/6/WalkInCounterClockwiseCircle02_1_stageii.npz
Output file: ../robot/ik_based/pkl/014203.pkl
Robot type: unitree_g1
Processing time: 23.79 seconds

STEP-BY-STEP TIMING:
  Step 1 - Load SMPLX:        4.76s
  Step 2 - Align FPS:         1.97s
  Step 3 - Init Retarget:     0.34s
  Step 4 - Init Visualization: 0.00s
  Step 5 - Process Frames:    15.93s (avg: 0.085s/frame)
  Step 6 - Convert Arrays:    0.00s
  Step 7 - Forward Kinematics: 0.47s
  Step 8 - Save Data:         0.01s
Status: SUCCESS
==================================================

=== SUCCESS LOG - 2025-10-14 17:57:42 ===
Input file: /data/retarget/locomotion/raw/AMASS_SMPLXG/KIT/6/WalkInCounterClockwiseCircle03_1_stageii.npz
Output file: ../robot/ik_based/pkl/014204.pkl
Robot type: unitree_g1
Processing time: 25.90 seconds

STEP-BY-STEP TIMING:
  Step 1 - Load SMPLX:        5.54s
  Step 2 - Align FPS:         2.05s
  Step 3 - Init Retarget:     0.44s
  Step 4 - Init Visualization: 0.00s
  Step 5 - Process Frames:    16.50s (avg: 0.091s/frame)
  Step 6 - Convert Arrays:    0.00s
  Step 7 - Forward Kinematics: 0.65s
  Step 8 - Save Data:         0.01s
Status: SUCCESS
==================================================

=== SUCCESS LOG - 2025-10-14 17:57:59 ===
Input file: /data/retarget/locomotion/raw/AMASS_SMPLXG/KIT/6/WalkInCounterClockwiseCircle04_1_stageii.npz
Output file: ../robot/ik_based/pkl/014205.pkl
Robot type: unitree_g1
Processing time: 33.34 seconds

STEP-BY-STEP TIMING:
  Step 1 - Load SMPLX:        5.27s
  Step 2 - Align FPS:         2.72s
  Step 3 - Init Retarget:     0.31s
  Step 4 - Init Visualization: 0.00s
  Step 5 - Process Frames:    24.05s (avg: 0.121s/frame)
  Step 6 - Convert Arrays:    0.00s
  Step 7 - Forward Kinematics: 0.51s
  Step 8 - Save Data:         0.01s
Status: SUCCESS
==================================================

=== SUCCESS LOG - 2025-10-14 17:58:06 ===
Input file: /data/retarget/locomotion/raw/AMASS_SMPLXG/KIT/6/WalkInCounterClockwiseCircle05_1_stageii.npz
Output file: ../robot/ik_based/pkl/014206.pkl
Robot type: unitree_g1
Processing time: 24.06 seconds

STEP-BY-STEP TIMING:
  Step 1 - Load SMPLX:        4.61s
  Step 2 - Align FPS:         2.30s
  Step 3 - Init Retarget:     0.29s
  Step 4 - Init Visualization: 0.00s
  Step 5 - Process Frames:    15.61s (avg: 0.090s/frame)
  Step 6 - Convert Arrays:    0.00s
  Step 7 - Forward Kinematics: 0.74s
  Step 8 - Save Data:         0.01s
Status: SUCCESS
==================================================

=== SUCCESS LOG - 2025-10-14 17:58:24 ===
Input file: /data/retarget/locomotion/raw/AMASS_SMPLXG/KIT/6/WalkInCounterClockwiseCircle06_1_stageii.npz
Output file: ../robot/ik_based/pkl/014207.pkl
Robot type: unitree_g1
Processing time: 24.25 seconds

STEP-BY-STEP TIMING:
  Step 1 - Load SMPLX:        5.44s
  Step 2 - Align FPS:         1.62s
  Step 3 - Init Retarget:     0.23s
  Step 4 - Init Visualization: 0.00s
  Step 5 - Process Frames:    15.69s (avg: 0.090s/frame)
  Step 6 - Convert Arrays:    0.00s
  Step 7 - Forward Kinematics: 0.64s
  Step 8 - Save Data:         0.01s
Status: SUCCESS
==================================================

=== SUCCESS LOG - 2025-10-14 17:58:31 ===
Input file: /data/retarget/locomotion/raw/AMASS_SMPLXG/KIT/6/WalkInCounterClockwiseCircle07_1_stageii.npz
Output file: ../robot/ik_based/pkl/014208.pkl
Robot type: unitree_g1
Processing time: 24.38 seconds

STEP-BY-STEP TIMING:
  Step 1 - Load SMPLX:        5.09s
  Step 2 - Align FPS:         2.55s
  Step 3 - Init Retarget:     0.31s
  Step 4 - Init Visualization: 0.00s
  Step 5 - Process Frames:    15.24s (avg: 0.080s/frame)
  Step 6 - Convert Arrays:    0.00s
  Step 7 - Forward Kinematics: 0.67s
  Step 8 - Save Data:         0.00s
Status: SUCCESS
==================================================

=== SUCCESS LOG - 2025-10-14 17:58:58 ===
Input file: /data/retarget/locomotion/raw/AMASS_SMPLXG/KIT/6/WalkInCounterClockwiseCircle09_1_stageii.npz
Output file: ../robot/ik_based/pkl/014210.pkl
Robot type: unitree_g1
Processing time: 26.23 seconds

STEP-BY-STEP TIMING:
  Step 1 - Load SMPLX:        4.39s
  Step 2 - Align FPS:         2.94s
  Step 3 - Init Retarget:     0.30s
  Step 4 - Init Visualization: 0.00s
  Step 5 - Process Frames:    17.95s (avg: 0.098s/frame)
  Step 6 - Convert Arrays:    0.00s
  Step 7 - Forward Kinematics: 0.40s
  Step 8 - Save Data:         0.01s
Status: SUCCESS
==================================================

=== SUCCESS LOG - 2025-10-14 17:58:58 ===
Input file: /data/retarget/locomotion/raw/AMASS_SMPLXG/KIT/6/WalkInCounterClockwiseCircle08_1_stageii.npz
Output file: ../robot/ik_based/pkl/014209.pkl
Robot type: unitree_g1
Processing time: 33.78 seconds

STEP-BY-STEP TIMING:
  Step 1 - Load SMPLX:        4.94s
  Step 2 - Align FPS:         1.89s
  Step 3 - Init Retarget:     0.30s
  Step 4 - Init Visualization: 0.00s
  Step 5 - Process Frames:    26.02s (avg: 0.141s/frame)
  Step 6 - Convert Arrays:    0.00s
  Step 7 - Forward Kinematics: 0.21s
  Step 8 - Save Data:         0.00s
Status: SUCCESS
==================================================

=== SUCCESS LOG - 2025-10-14 17:59:14 ===
Input file: /data/retarget/locomotion/raw/AMASS_SMPLXG/KIT/6/WalkingStraightBackwards01_stageii.npz
Output file: ../robot/ik_based/pkl/014212.pkl
Robot type: unitree_g1
Processing time: 15.83 seconds

STEP-BY-STEP TIMING:
  Step 1 - Load SMPLX:        2.68s
  Step 2 - Align FPS:         1.47s
  Step 3 - Init Retarget:     0.25s
  Step 4 - Init Visualization: 0.00s
  Step 5 - Process Frames:    10.44s (avg: 0.092s/frame)
  Step 6 - Convert Arrays:    0.00s
  Step 7 - Forward Kinematics: 0.37s
  Step 8 - Save Data:         0.01s
Status: SUCCESS
==================================================

=== SUCCESS LOG - 2025-10-14 17:59:19 ===
Input file: /data/retarget/locomotion/raw/AMASS_SMPLXG/KIT/6/WalkInCounterClockwiseCircle10_1_stageii.npz
Output file: ../robot/ik_based/pkl/014211.pkl
Robot type: unitree_g1
Processing time: 20.66 seconds

STEP-BY-STEP TIMING:
  Step 1 - Load SMPLX:        2.82s
  Step 2 - Align FPS:         2.48s
  Step 3 - Init Retarget:     0.32s
  Step 4 - Init Visualization: 0.00s
  Step 5 - Process Frames:    14.59s (avg: 0.086s/frame)
  Step 6 - Convert Arrays:    0.00s
  Step 7 - Forward Kinematics: 0.26s
  Step 8 - Save Data:         0.01s
Status: SUCCESS
==================================================

=== SUCCESS LOG - 2025-10-14 17:59:31 ===
Input file: /data/retarget/locomotion/raw/AMASS_SMPLXG/KIT/6/WalkingStraightBackwards02_stageii.npz
Output file: ../robot/ik_based/pkl/014213.pkl
Robot type: unitree_g1
Processing time: 16.48 seconds

STEP-BY-STEP TIMING:
  Step 1 - Load SMPLX:        4.84s
  Step 2 - Align FPS:         0.89s
  Step 3 - Init Retarget:     0.22s
  Step 4 - Init Visualization: 0.00s
  Step 5 - Process Frames:    9.87s (avg: 0.080s/frame)
  Step 6 - Convert Arrays:    0.00s
  Step 7 - Forward Kinematics: 0.35s
  Step 8 - Save Data:         0.01s
Status: SUCCESS
==================================================

=== SUCCESS LOG - 2025-10-14 17:59:35 ===
Input file: /data/retarget/locomotion/raw/AMASS_SMPLXG/KIT/6/WalkingStraightBackwards03_stageii.npz
Output file: ../robot/ik_based/pkl/014214.pkl
Robot type: unitree_g1
Processing time: 15.91 seconds

STEP-BY-STEP TIMING:
  Step 1 - Load SMPLX:        4.52s
  Step 2 - Align FPS:         1.39s
  Step 3 - Init Retarget:     0.30s
  Step 4 - Init Visualization: 0.00s
  Step 5 - Process Frames:    9.36s (avg: 0.073s/frame)
  Step 6 - Convert Arrays:    0.00s
  Step 7 - Forward Kinematics: 0.15s
  Step 8 - Save Data:         0.00s
Status: SUCCESS
==================================================

=== SUCCESS LOG - 2025-10-14 17:59:48 ===
Input file: /data/retarget/locomotion/raw/AMASS_SMPLXG/KIT/6/WalkingStraightBackwards04_stageii.npz
Output file: ../robot/ik_based/pkl/014215.pkl
Robot type: unitree_g1
Processing time: 16.87 seconds

STEP-BY-STEP TIMING:
  Step 1 - Load SMPLX:        3.92s
  Step 2 - Align FPS:         1.04s
  Step 3 - Init Retarget:     0.24s
  Step 4 - Init Visualization: 0.00s
  Step 5 - Process Frames:    10.39s (avg: 0.079s/frame)
  Step 6 - Convert Arrays:    0.00s
  Step 7 - Forward Kinematics: 0.68s
  Step 8 - Save Data:         0.01s
Status: SUCCESS
==================================================

=== SUCCESS LOG - 2025-10-14 17:59:52 ===
Input file: /data/retarget/locomotion/raw/AMASS_SMPLXG/KIT/6/WalkingStraightBackwards05_stageii.npz
Output file: ../robot/ik_based/pkl/014216.pkl
Robot type: unitree_g1
Processing time: 16.18 seconds

STEP-BY-STEP TIMING:
  Step 1 - Load SMPLX:        4.70s
  Step 2 - Align FPS:         1.34s
  Step 3 - Init Retarget:     0.37s
  Step 4 - Init Visualization: 0.00s
  Step 5 - Process Frames:    9.50s (avg: 0.072s/frame)
  Step 6 - Convert Arrays:    0.00s
  Step 7 - Forward Kinematics: 0.13s
  Step 8 - Save Data:         0.00s
Status: SUCCESS
==================================================

=== SUCCESS LOG - 2025-10-14 18:00:07 ===
Input file: /data/retarget/locomotion/raw/AMASS_SMPLXG/KIT/6/WalkingStraightBackwards06_stageii.npz
Output file: ../robot/ik_based/pkl/014217.pkl
Robot type: unitree_g1
Processing time: 18.49 seconds

STEP-BY-STEP TIMING:
  Step 1 - Load SMPLX:        3.96s
  Step 2 - Align FPS:         1.42s
  Step 3 - Init Retarget:     0.31s
  Step 4 - Init Visualization: 0.00s
  Step 5 - Process Frames:    11.88s (avg: 0.091s/frame)
  Step 6 - Convert Arrays:    0.00s
  Step 7 - Forward Kinematics: 0.50s
  Step 8 - Save Data:         0.01s
Status: SUCCESS
==================================================

=== SUCCESS LOG - 2025-10-14 18:00:08 ===
Input file: /data/retarget/locomotion/raw/AMASS_SMPLXG/KIT/6/WalkingStraightBackwards07_stageii.npz
Output file: ../robot/ik_based/pkl/014218.pkl
Robot type: unitree_g1
Processing time: 16.28 seconds

STEP-BY-STEP TIMING:
  Step 1 - Load SMPLX:        4.59s
  Step 2 - Align FPS:         0.80s
  Step 3 - Init Retarget:     0.29s
  Step 4 - Init Visualization: 0.00s
  Step 5 - Process Frames:    10.15s (avg: 0.086s/frame)
  Step 6 - Convert Arrays:    0.00s
  Step 7 - Forward Kinematics: 0.25s
  Step 8 - Save Data:         0.01s
Status: SUCCESS
==================================================

=== SUCCESS LOG - 2025-10-14 18:00:28 ===
Input file: /data/retarget/locomotion/raw/AMASS_SMPLXG/KIT/6/WalkingStraightBackwards09_stageii.npz
Output file: ../robot/ik_based/pkl/014220.pkl
Robot type: unitree_g1
Processing time: 19.47 seconds

STEP-BY-STEP TIMING:
  Step 1 - Load SMPLX:        3.29s
  Step 2 - Align FPS:         2.76s
  Step 3 - Init Retarget:     0.25s
  Step 4 - Init Visualization: 0.00s
  Step 5 - Process Frames:    12.08s (avg: 0.095s/frame)
  Step 6 - Convert Arrays:    0.00s
  Step 7 - Forward Kinematics: 0.55s
  Step 8 - Save Data:         0.01s
Status: SUCCESS
==================================================

=== SUCCESS LOG - 2025-10-14 18:00:29 ===
Input file: /data/retarget/locomotion/raw/AMASS_SMPLXG/KIT/6/WalkingStraightBackwards08_stageii.npz
Output file: ../robot/ik_based/pkl/014219.pkl
Robot type: unitree_g1
Processing time: 21.50 seconds

STEP-BY-STEP TIMING:
  Step 1 - Load SMPLX:        3.16s
  Step 2 - Align FPS:         1.36s
  Step 3 - Init Retarget:     0.29s
  Step 4 - Init Visualization: 0.00s
  Step 5 - Process Frames:    16.28s (avg: 0.135s/frame)
  Step 6 - Convert Arrays:    0.00s
  Step 7 - Forward Kinematics: 0.23s
  Step 8 - Save Data:         0.00s
Status: SUCCESS
==================================================

=== ERROR LOG - 2025-10-14 18:00:32 ===
Input file: /data/retarget/locomotion/raw/AMASS_SMPLXG/KIT/6/male_stagei.npz
Output file: ../robot/ik_based/pkl/014222.pkl
Robot type: unitree_g1
Processing time: 3.02 seconds
Error message: 'pose_body is not a file in the archive'
Error type: KeyError
==================================================

=== SUCCESS LOG - 2025-10-14 18:00:43 ===
Input file: /data/retarget/locomotion/raw/AMASS_SMPLXG/KIT/6/WalkingStraightBackwards10_stageii.npz
Output file: ../robot/ik_based/pkl/014221.pkl
Robot type: unitree_g1
Processing time: 14.41 seconds

STEP-BY-STEP TIMING:
  Step 1 - Load SMPLX:        2.83s
  Step 2 - Align FPS:         0.70s
  Step 3 - Init Retarget:     0.39s
  Step 4 - Init Visualization: 0.00s
  Step 5 - Process Frames:    9.55s (avg: 0.078s/frame)
  Step 6 - Convert Arrays:    0.00s
  Step 7 - Forward Kinematics: 0.52s
  Step 8 - Save Data:         0.01s
Status: SUCCESS
==================================================

=== SUCCESS LOG - 2025-10-14 18:00:44 ===
Input file: /data/retarget/locomotion/raw/AMASS_SMPLXG/KIT/63/Chris3MSeminar_Cal_08_stageii.npz
Output file: ../robot/ik_based/pkl/014223.pkl
Robot type: unitree_g1
Processing time: 12.00 seconds

STEP-BY-STEP TIMING:
  Step 1 - Load SMPLX:        4.77s
  Step 2 - Align FPS:         0.67s
  Step 3 - Init Retarget:     0.30s
  Step 4 - Init Visualization: 0.00s
  Step 5 - Process Frames:    5.73s (avg: 0.090s/frame)
  Step 6 - Convert Arrays:    0.00s
  Step 7 - Forward Kinematics: 0.26s
  Step 8 - Save Data:         0.00s
Status: SUCCESS
==================================================

=== ERROR LOG - 2025-10-14 18:00:46 ===
Input file: /data/retarget/locomotion/raw/AMASS_SMPLXG/KIT/63/male_stagei.npz
Output file: ../robot/ik_based/pkl/014224.pkl
Robot type: unitree_g1
Processing time: 2.97 seconds
Error message: 'pose_body is not a file in the archive'
Error type: KeyError
==================================================

=== SUCCESS LOG - 2025-10-14 18:01:38 ===
Input file: /data/retarget/locomotion/raw/AMASS_SMPLXG/KIT/674/dry_front01_stageii.npz
Output file: ../robot/ik_based/pkl/014226.pkl
Robot type: unitree_g1
Processing time: 51.26 seconds

STEP-BY-STEP TIMING:
  Step 1 - Load SMPLX:        4.42s
  Step 2 - Align FPS:         4.35s
  Step 3 - Init Retarget:     0.28s
  Step 4 - Init Visualization: 0.00s
  Step 5 - Process Frames:    41.76s (avg: 0.119s/frame)
  Step 6 - Convert Arrays:    0.00s
  Step 7 - Forward Kinematics: 0.20s
  Step 8 - Save Data:         0.01s
Status: SUCCESS
==================================================

=== SUCCESS LOG - 2025-10-14 18:01:38 ===
Input file: /data/retarget/locomotion/raw/AMASS_SMPLXG/KIT/674/dry_back01_stageii.npz
Output file: ../robot/ik_based/pkl/014225.pkl
Robot type: unitree_g1
Processing time: 53.23 seconds

STEP-BY-STEP TIMING:
  Step 1 - Load SMPLX:        3.18s
  Step 2 - Align FPS:         2.85s
  Step 3 - Init Retarget:     0.46s
  Step 4 - Init Visualization: 0.01s
  Step 5 - Process Frames:    46.13s (avg: 0.133s/frame)
  Step 6 - Convert Arrays:    0.00s
  Step 7 - Forward Kinematics: 0.21s
  Step 8 - Save Data:         0.00s
Status: SUCCESS
==================================================

=== SUCCESS LOG - 2025-10-14 18:02:19 ===
Input file: /data/retarget/locomotion/raw/AMASS_SMPLXG/KIT/674/dry_front03_stageii.npz
Output file: ../robot/ik_based/pkl/014228.pkl
Robot type: unitree_g1
Processing time: 41.01 seconds

STEP-BY-STEP TIMING:
  Step 1 - Load SMPLX:        3.53s
  Step 2 - Align FPS:         4.30s
  Step 3 - Init Retarget:     0.50s
  Step 4 - Init Visualization: 0.00s
  Step 5 - Process Frames:    31.65s (avg: 0.102s/frame)
  Step 6 - Convert Arrays:    0.00s
  Step 7 - Forward Kinematics: 0.54s
  Step 8 - Save Data:         0.01s
Status: SUCCESS
==================================================

=== SUCCESS LOG - 2025-10-14 18:02:21 ===
Input file: /data/retarget/locomotion/raw/AMASS_SMPLXG/KIT/674/dry_front02_stageii.npz
Output file: ../robot/ik_based/pkl/014227.pkl
Robot type: unitree_g1
Processing time: 43.29 seconds

STEP-BY-STEP TIMING:
  Step 1 - Load SMPLX:        3.45s
  Step 2 - Align FPS:         5.09s
  Step 3 - Init Retarget:     0.34s
  Step 4 - Init Visualization: 0.00s
  Step 5 - Process Frames:    34.03s (avg: 0.104s/frame)
  Step 6 - Convert Arrays:    0.00s
  Step 7 - Forward Kinematics: 0.18s
  Step 8 - Save Data:         0.01s
Status: SUCCESS
==================================================

=== SUCCESS LOG - 2025-10-14 18:03:08 ===
Input file: /data/retarget/locomotion/raw/AMASS_SMPLXG/KIT/674/dry_front04_stageii.npz
Output file: ../robot/ik_based/pkl/014229.pkl
Robot type: unitree_g1
Processing time: 47.95 seconds

STEP-BY-STEP TIMING:
  Step 1 - Load SMPLX:        3.57s
  Step 2 - Align FPS:         4.11s
  Step 3 - Init Retarget:     0.72s
  Step 4 - Init Visualization: 0.01s
  Step 5 - Process Frames:    38.60s (avg: 0.112s/frame)
  Step 6 - Convert Arrays:    0.00s
  Step 7 - Forward Kinematics: 0.50s
  Step 8 - Save Data:         0.01s
Status: SUCCESS
==================================================

=== SUCCESS LOG - 2025-10-14 18:03:20 ===
Input file: /data/retarget/locomotion/raw/AMASS_SMPLXG/KIT/674/dry_front05_stageii.npz
Output file: ../robot/ik_based/pkl/014230.pkl
Robot type: unitree_g1
Processing time: 58.04 seconds

STEP-BY-STEP TIMING:
  Step 1 - Load SMPLX:        3.11s
  Step 2 - Align FPS:         6.56s
  Step 3 - Init Retarget:     0.28s
  Step 4 - Init Visualization: 0.00s
  Step 5 - Process Frames:    47.15s (avg: 0.108s/frame)
  Step 6 - Convert Arrays:    0.00s
  Step 7 - Forward Kinematics: 0.48s
  Step 8 - Save Data:         0.01s
Status: SUCCESS
==================================================

=== SUCCESS LOG - 2025-10-14 18:03:50 ===
Input file: /data/retarget/locomotion/raw/AMASS_SMPLXG/KIT/674/dry_front08_stageii.npz
Output file: ../robot/ik_based/pkl/014231.pkl
Robot type: unitree_g1
Processing time: 41.46 seconds

STEP-BY-STEP TIMING:
  Step 1 - Load SMPLX:        4.78s
  Step 2 - Align FPS:         3.20s
  Step 3 - Init Retarget:     0.37s
  Step 4 - Init Visualization: 0.00s
  Step 5 - Process Frames:    32.18s (avg: 0.123s/frame)
  Step 6 - Convert Arrays:    0.00s
  Step 7 - Forward Kinematics: 0.49s
  Step 8 - Save Data:         0.01s
Status: SUCCESS
==================================================

=== SUCCESS LOG - 2025-10-14 18:03:53 ===
Input file: /data/retarget/locomotion/raw/AMASS_SMPLXG/KIT/674/dry_head01_stageii.npz
Output file: ../robot/ik_based/pkl/014232.pkl
Robot type: unitree_g1
Processing time: 32.46 seconds

STEP-BY-STEP TIMING:
  Step 1 - Load SMPLX:        4.05s
  Step 2 - Align FPS:         3.38s
  Step 3 - Init Retarget:     0.26s
  Step 4 - Init Visualization: 0.00s
  Step 5 - Process Frames:    24.38s (avg: 0.088s/frame)
  Step 6 - Convert Arrays:    0.00s
  Step 7 - Forward Kinematics: 0.21s
  Step 8 - Save Data:         0.00s
Status: SUCCESS
==================================================

=== SUCCESS LOG - 2025-10-14 18:04:18 ===
Input file: /data/retarget/locomotion/raw/AMASS_SMPLXG/KIT/674/dry_head02_stageii.npz
Output file: ../robot/ik_based/pkl/014233.pkl
Robot type: unitree_g1
Processing time: 28.19 seconds

STEP-BY-STEP TIMING:
  Step 1 - Load SMPLX:        4.01s
  Step 2 - Align FPS:         2.53s
  Step 3 - Init Retarget:     0.21s
  Step 4 - Init Visualization: 0.00s
  Step 5 - Process Frames:    20.62s (avg: 0.086s/frame)
  Step 6 - Convert Arrays:    0.00s
  Step 7 - Forward Kinematics: 0.40s
  Step 8 - Save Data:         0.01s
Status: SUCCESS
==================================================

=== SUCCESS LOG - 2025-10-14 18:04:20 ===
Input file: /data/retarget/locomotion/raw/AMASS_SMPLXG/KIT/674/dry_head03_stageii.npz
Output file: ../robot/ik_based/pkl/014234.pkl
Robot type: unitree_g1
Processing time: 26.54 seconds

STEP-BY-STEP TIMING:
  Step 1 - Load SMPLX:        4.15s
  Step 2 - Align FPS:         2.78s
  Step 3 - Init Retarget:     0.32s
  Step 4 - Init Visualization: 0.00s
  Step 5 - Process Frames:    18.93s (avg: 0.085s/frame)
  Step 6 - Convert Arrays:    0.00s
  Step 7 - Forward Kinematics: 0.16s
  Step 8 - Save Data:         0.00s
Status: SUCCESS
==================================================

=== SUCCESS LOG - 2025-10-14 18:04:49 ===
Input file: /data/retarget/locomotion/raw/AMASS_SMPLXG/KIT/674/dry_head04_stageii.npz
Output file: ../robot/ik_based/pkl/014235.pkl
Robot type: unitree_g1
Processing time: 30.54 seconds

STEP-BY-STEP TIMING:
  Step 1 - Load SMPLX:        3.05s
  Step 2 - Align FPS:         1.79s
  Step 3 - Init Retarget:     0.54s
  Step 4 - Init Visualization: 0.00s
  Step 5 - Process Frames:    24.06s (avg: 0.093s/frame)
  Step 6 - Convert Arrays:    0.00s
  Step 7 - Forward Kinematics: 0.52s
  Step 8 - Save Data:         0.01s
Status: SUCCESS
==================================================

=== ERROR LOG - 2025-10-14 18:04:54 ===
Input file: /data/retarget/locomotion/raw/AMASS_SMPLXG/KIT/674/female_stagei.npz
Output file: ../robot/ik_based/pkl/014237.pkl
Robot type: unitree_g1
Processing time: 4.06 seconds
Error message: 'pose_body is not a file in the archive'
Error type: KeyError
==================================================

=== SUCCESS LOG - 2025-10-14 18:04:55 ===
Input file: /data/retarget/locomotion/raw/AMASS_SMPLXG/KIT/674/dry_head05_stageii.npz
Output file: ../robot/ik_based/pkl/014236.pkl
Robot type: unitree_g1
Processing time: 34.56 seconds

STEP-BY-STEP TIMING:
  Step 1 - Load SMPLX:        3.95s
  Step 2 - Align FPS:         3.65s
  Step 3 - Init Retarget:     0.35s
  Step 4 - Init Visualization: 0.00s
  Step 5 - Process Frames:    26.06s (avg: 0.076s/frame)
  Step 6 - Convert Arrays:    0.00s
  Step 7 - Forward Kinematics: 0.27s
  Step 8 - Save Data:         0.01s
Status: SUCCESS
==================================================

=== SUCCESS LOG - 2025-10-14 18:05:30 ===
Input file: /data/retarget/locomotion/raw/AMASS_SMPLXG/KIT/674/shower_back01_stageii.npz
Output file: ../robot/ik_based/pkl/014238.pkl
Robot type: unitree_g1
Processing time: 36.26 seconds

STEP-BY-STEP TIMING:
  Step 1 - Load SMPLX:        3.05s
  Step 2 - Align FPS:         3.83s
  Step 3 - Init Retarget:     0.32s
  Step 4 - Init Visualization: 0.00s
  Step 5 - Process Frames:    28.07s (avg: 0.128s/frame)
  Step 6 - Convert Arrays:    0.00s
  Step 7 - Forward Kinematics: 0.62s
  Step 8 - Save Data:         0.01s
Status: SUCCESS
==================================================

=== SUCCESS LOG - 2025-10-14 18:05:31 ===
Input file: /data/retarget/locomotion/raw/AMASS_SMPLXG/KIT/674/shower_front01_stageii.npz
Output file: ../robot/ik_based/pkl/014239.pkl
Robot type: unitree_g1
Processing time: 35.53 seconds

STEP-BY-STEP TIMING:
  Step 1 - Load SMPLX:        3.44s
  Step 2 - Align FPS:         4.56s
  Step 3 - Init Retarget:     0.24s
  Step 4 - Init Visualization: 0.00s
  Step 5 - Process Frames:    26.58s (avg: 0.124s/frame)
  Step 6 - Convert Arrays:    0.00s
  Step 7 - Forward Kinematics: 0.34s
  Step 8 - Save Data:         0.01s
Status: SUCCESS
==================================================

=== SUCCESS LOG - 2025-10-14 18:05:53 ===
Input file: /data/retarget/locomotion/raw/AMASS_SMPLXG/KIT/576/MarcusS_AdrianM12_stageii.npz
Output file: ../robot/ik_based/pkl/014170.pkl
Robot type: unitree_g1
Processing time: 879.57 seconds

STEP-BY-STEP TIMING:
  Step 1 - Load SMPLX:        10.27s
  Step 2 - Align FPS:         51.97s
  Step 3 - Init Retarget:     0.31s
  Step 4 - Init Visualization: 0.00s
  Step 5 - Process Frames:    815.86s (avg: 0.143s/frame)
  Step 6 - Convert Arrays:    0.02s
  Step 7 - Forward Kinematics: 0.51s
  Step 8 - Save Data:         0.03s
Status: SUCCESS
==================================================

=== SUCCESS LOG - 2025-10-14 18:05:54 ===
Input file: /data/retarget/locomotion/raw/AMASS_SMPLXG/KIT/674/shower_head01_stageii.npz
Output file: ../robot/ik_based/pkl/014241.pkl
Robot type: unitree_g1
Processing time: 23.02 seconds

STEP-BY-STEP TIMING:
  Step 1 - Load SMPLX:        3.38s
  Step 2 - Align FPS:         3.04s
  Step 3 - Init Retarget:     0.41s
  Step 4 - Init Visualization: 0.00s
  Step 5 - Process Frames:    15.93s (avg: 0.078s/frame)
  Step 6 - Convert Arrays:    0.00s
  Step 7 - Forward Kinematics: 0.14s
  Step 8 - Save Data:         0.00s
Status: SUCCESS
==================================================

=== SUCCESS LOG - 2025-10-14 18:05:56 ===
Input file: /data/retarget/locomotion/raw/AMASS_SMPLXG/KIT/674/shower_front02_stageii.npz
Output file: ../robot/ik_based/pkl/014240.pkl
Robot type: unitree_g1
Processing time: 24.83 seconds

STEP-BY-STEP TIMING:
  Step 1 - Load SMPLX:        3.41s
  Step 2 - Align FPS:         3.52s
  Step 3 - Init Retarget:     0.30s
  Step 4 - Init Visualization: 0.00s
  Step 5 - Process Frames:    17.53s (avg: 0.083s/frame)
  Step 6 - Convert Arrays:    0.00s
  Step 7 - Forward Kinematics: 0.02s
  Step 8 - Save Data:         0.00s
Status: SUCCESS
==================================================

=== SUCCESS LOG - 2025-10-14 18:06:20 ===
Input file: /data/retarget/locomotion/raw/AMASS_SMPLXG/KIT/674/shower_head04_stageii.npz
Output file: ../robot/ik_based/pkl/014244.pkl
Robot type: unitree_g1
Processing time: 23.96 seconds

STEP-BY-STEP TIMING:
  Step 1 - Load SMPLX:        2.50s
  Step 2 - Align FPS:         2.79s
  Step 3 - Init Retarget:     0.40s
  Step 4 - Init Visualization: 0.00s
  Step 5 - Process Frames:    17.44s (avg: 0.079s/frame)
  Step 6 - Convert Arrays:    0.00s
  Step 7 - Forward Kinematics: 0.52s
  Step 8 - Save Data:         0.01s
Status: SUCCESS
==================================================

=== SUCCESS LOG - 2025-10-14 18:06:20 ===
Input file: /data/retarget/locomotion/raw/AMASS_SMPLXG/KIT/674/shower_head02_stageii.npz
Output file: ../robot/ik_based/pkl/014242.pkl
Robot type: unitree_g1
Processing time: 24.49 seconds

STEP-BY-STEP TIMING:
  Step 1 - Load SMPLX:        1.49s
  Step 2 - Align FPS:         3.94s
  Step 3 - Init Retarget:     0.49s
  Step 4 - Init Visualization: 0.00s
  Step 5 - Process Frames:    17.85s (avg: 0.083s/frame)
  Step 6 - Convert Arrays:    0.00s
  Step 7 - Forward Kinematics: 0.24s
  Step 8 - Save Data:         0.00s
Status: SUCCESS
==================================================

=== SUCCESS LOG - 2025-10-14 18:06:20 ===
Input file: /data/retarget/locomotion/raw/AMASS_SMPLXG/KIT/674/shower_head03_stageii.npz
Output file: ../robot/ik_based/pkl/014243.pkl
Robot type: unitree_g1
Processing time: 24.90 seconds

STEP-BY-STEP TIMING:
  Step 1 - Load SMPLX:        1.40s
  Step 2 - Align FPS:         3.60s
  Step 3 - Init Retarget:     0.73s
  Step 4 - Init Visualization: 0.00s
  Step 5 - Process Frames:    19.12s (avg: 0.084s/frame)
  Step 6 - Convert Arrays:    0.00s
  Step 7 - Forward Kinematics: 0.02s
  Step 8 - Save Data:         0.00s
Status: SUCCESS
==================================================

=== SUCCESS LOG - 2025-10-14 18:06:46 ===
Input file: /data/retarget/locomotion/raw/AMASS_SMPLXG/KIT/674/shower_head05_stageii.npz
Output file: ../robot/ik_based/pkl/014245.pkl
Robot type: unitree_g1
Processing time: 25.78 seconds

STEP-BY-STEP TIMING:
  Step 1 - Load SMPLX:        1.43s
  Step 2 - Align FPS:         3.69s
  Step 3 - Init Retarget:     0.51s
  Step 4 - Init Visualization: 0.00s
  Step 5 - Process Frames:    19.07s (avg: 0.083s/frame)
  Step 6 - Convert Arrays:    0.00s
  Step 7 - Forward Kinematics: 0.67s
  Step 8 - Save Data:         0.01s
Status: SUCCESS
==================================================

=== SUCCESS LOG - 2025-10-14 18:06:54 ===
Input file: /data/retarget/locomotion/raw/AMASS_SMPLXG/KIT/674/shower_left_arm02_stageii.npz
Output file: ../robot/ik_based/pkl/014247.pkl
Robot type: unitree_g1
Processing time: 33.05 seconds

STEP-BY-STEP TIMING:
  Step 1 - Load SMPLX:        2.27s
  Step 2 - Align FPS:         5.26s
  Step 3 - Init Retarget:     0.29s
  Step 4 - Init Visualization: 0.00s
  Step 5 - Process Frames:    24.05s (avg: 0.083s/frame)
  Step 6 - Convert Arrays:    0.00s
  Step 7 - Forward Kinematics: 0.35s
  Step 8 - Save Data:         0.01s
Status: SUCCESS
==================================================

=== SUCCESS LOG - 2025-10-14 18:06:58 ===
Input file: /data/retarget/locomotion/raw/AMASS_SMPLXG/KIT/674/shower_left_arm01_stageii.npz
Output file: ../robot/ik_based/pkl/014246.pkl
Robot type: unitree_g1
Processing time: 38.08 seconds

STEP-BY-STEP TIMING:
  Step 1 - Load SMPLX:        1.68s
  Step 2 - Align FPS:         5.56s
  Step 3 - Init Retarget:     0.60s
  Step 4 - Init Visualization: 0.01s
  Step 5 - Process Frames:    29.79s (avg: 0.071s/frame)
  Step 6 - Convert Arrays:    0.00s
  Step 7 - Forward Kinematics: 0.23s
  Step 8 - Save Data:         0.01s
Status: SUCCESS
==================================================

=== SUCCESS LOG - 2025-10-14 18:07:03 ===
Input file: /data/retarget/locomotion/raw/AMASS_SMPLXG/KIT/674/shower_left_arm04_stageii.npz
Output file: ../robot/ik_based/pkl/014249.pkl
Robot type: unitree_g1
Processing time: 9.38 seconds

STEP-BY-STEP TIMING:
  Step 1 - Load SMPLX:        4.82s
  Step 2 - Align FPS:         0.59s
  Step 3 - Init Retarget:     0.28s
  Step 4 - Init Visualization: 0.00s
  Step 5 - Process Frames:    3.38s (avg: 0.061s/frame)
  Step 6 - Convert Arrays:    0.00s
  Step 7 - Forward Kinematics: 0.16s
  Step 8 - Save Data:         0.00s
Status: SUCCESS
==================================================

=== SUCCESS LOG - 2025-10-14 18:07:11 ===
Input file: /data/retarget/locomotion/raw/AMASS_SMPLXG/KIT/674/shower_left_arm03_stageii.npz
Output file: ../robot/ik_based/pkl/014248.pkl
Robot type: unitree_g1
Processing time: 24.89 seconds

STEP-BY-STEP TIMING:
  Step 1 - Load SMPLX:        4.65s
  Step 2 - Align FPS:         2.67s
  Step 3 - Init Retarget:     0.35s
  Step 4 - Init Visualization: 0.00s
  Step 5 - Process Frames:    16.36s (avg: 0.059s/frame)
  Step 6 - Convert Arrays:    0.00s
  Step 7 - Forward Kinematics: 0.57s
  Step 8 - Save Data:         0.01s
Status: SUCCESS
==================================================

=== SUCCESS LOG - 2025-10-14 18:07:25 ===
Input file: /data/retarget/locomotion/raw/AMASS_SMPLXG/KIT/674/shower_left_arm05_stageii.npz
Output file: ../robot/ik_based/pkl/014250.pkl
Robot type: unitree_g1
Processing time: 25.94 seconds

STEP-BY-STEP TIMING:
  Step 1 - Load SMPLX:        4.87s
  Step 2 - Align FPS:         2.12s
  Step 3 - Init Retarget:     0.28s
  Step 4 - Init Visualization: 0.00s
  Step 5 - Process Frames:    17.85s (avg: 0.071s/frame)
  Step 6 - Convert Arrays:    0.00s
  Step 7 - Forward Kinematics: 0.49s
  Step 8 - Save Data:         0.01s
Status: SUCCESS
==================================================

=== SUCCESS LOG - 2025-10-14 18:07:31 ===
Input file: /data/retarget/locomotion/raw/AMASS_SMPLXG/KIT/674/shower_left_arm06_stageii.npz
Output file: ../robot/ik_based/pkl/014251.pkl
Robot type: unitree_g1
Processing time: 27.83 seconds

STEP-BY-STEP TIMING:
  Step 1 - Load SMPLX:        5.16s
  Step 2 - Align FPS:         2.02s
  Step 3 - Init Retarget:     0.23s
  Step 4 - Init Visualization: 0.00s
  Step 5 - Process Frames:    18.94s (avg: 0.072s/frame)
  Step 6 - Convert Arrays:    0.00s
  Step 7 - Forward Kinematics: 1.20s
  Step 8 - Save Data:         0.00s
Status: SUCCESS
==================================================

=== SUCCESS LOG - 2025-10-14 18:07:40 ===
Input file: /data/retarget/locomotion/raw/AMASS_SMPLXG/KIT/674/shower_left_arm07_stageii.npz
Output file: ../robot/ik_based/pkl/014252.pkl
Robot type: unitree_g1
Processing time: 28.26 seconds

STEP-BY-STEP TIMING:
  Step 1 - Load SMPLX:        5.72s
  Step 2 - Align FPS:         2.91s
  Step 3 - Init Retarget:     0.27s
  Step 4 - Init Visualization: 0.00s
  Step 5 - Process Frames:    18.34s (avg: 0.075s/frame)
  Step 6 - Convert Arrays:    0.00s
  Step 7 - Forward Kinematics: 0.27s
  Step 8 - Save Data:         0.00s
Status: SUCCESS
==================================================

[...]
  Step 4 - Init Visualization: 0.00s
  Step 5 - Process Frames:    19.84s (avg: 0.189s/frame)
  Step 6 - Convert Arrays:    0.00s
  Step 7 - Forward Kinematics: 0.26s
  Step 8 - Save Data:         0.02s
Status: SUCCESS
==================================================

=== SUCCESS LOG - 2025-10-14 23:32:44 ===
Input file: /data/retarget/locomotion/raw/AMASS_SMPLXG/WEIZMANN/67/Fast_SShapeLR(4)_stageii.npz
Output file: ../robot/ik_based/pkl/015972.pkl
Robot type: unitree_g1
Processing time: 36.51 seconds

STEP-BY-STEP TIMING:
  Step 1 - Load SMPLX:        5.69s
  Step 2 - Align FPS:         3.60s
  Step 3 - Init Retarget:     0.64s
  Step 4 - Init Visualization: 0.00s
  Step 5 - Process Frames:    25.78s (avg: 0.248s/frame)
  Step 6 - Convert Arrays:    0.00s
  Step 7 - Forward Kinematics: 0.29s
  Step 8 - Save Data:         0.00s
Status: SUCCESS
==================================================

=== SUCCESS LOG - 2025-10-14 23:32:45 ===
Input file: /data/retarget/locomotion/raw/AMASS_SMPLXG/WEIZMANN/67/Fast_SShapeLR(3)_stageii.npz
Output file: ../robot/ik_based/pkl/015971.pkl
Robot type: unitree_g1
Processing time: 38.12 seconds

STEP-BY-STEP TIMING:
  Step 1 - Load SMPLX:        5.24s
  Step 2 - Align FPS:         4.21s
  Step 3 - Init Retarget:     0.84s
  Step 4 - Init Visualization: 0.00s
  Step 5 - Process Frames:    26.97s (avg: 0.252s/frame)
  Step 6 - Convert Arrays:    0.00s
  Step 7 - Forward Kinematics: 0.46s
  Step 8 - Save Data:         0.00s
Status: SUCCESS
==================================================

=== SUCCESS LOG - 2025-10-14 23:33:09 ===
Input file: /data/retarget/locomotion/raw/AMASS_SMPLXG/WEIZMANN/67/Fast_SShapeLR(5)_stageii.npz
Output file: ../robot/ik_based/pkl/015973.pkl
Robot type: unitree_g1
Processing time: 41.04 seconds

STEP-BY-STEP TIMING:
  Step 1 - Load SMPLX:        7.69s
  Step 2 - Align FPS:         5.21s
  Step 3 - Init Retarget:     1.33s
  Step 4 - Init Visualization: 0.00s
  Step 5 - Process Frames:    25.58s (avg: 0.233s/frame)
  Step 6 - Convert Arrays:    0.00s
  Step 7 - Forward Kinematics: 0.60s
  Step 8 - Save Data:         0.01s
Status: SUCCESS
==================================================

=== SUCCESS LOG - 2025-10-14 23:33:17 ===
Input file: /data/retarget/locomotion/raw/AMASS_SMPLXG/WEIZMANN/67/Fast_SShapeLR(6)_stageii.npz
Output file: ../robot/ik_based/pkl/015974.pkl
Robot type: unitree_g1
Processing time: 32.63 seconds

STEP-BY-STEP TIMING:
  Step 1 - Load SMPLX:        7.84s
  Step 2 - Align FPS:         4.98s
  Step 3 - Init Retarget:     0.31s
  Step 4 - Init Visualization: 0.00s
  Step 5 - Process Frames:    18.16s (avg: 0.155s/frame)
  Step 6 - Convert Arrays:    0.00s
  Step 7 - Forward Kinematics: 0.41s
  Step 8 - Save Data:         0.08s
Status: SUCCESS
==================================================

=== SUCCESS LOG - 2025-10-14 23:33:17 ===
Input file: /data/retarget/locomotion/raw/AMASS_SMPLXG/WEIZMANN/67/Fast_SShapeLR(7)_stageii.npz
Output file: ../robot/ik_based/pkl/015975.pkl
Robot type: unitree_g1
Processing time: 32.00 seconds

STEP-BY-STEP TIMING:
  Step 1 - Load SMPLX:        7.51s
  Step 2 - Align FPS:         4.86s
  Step 3 - Init Retarget:     0.72s
  Step 4 - Init Visualization: 0.01s
  Step 5 - Process Frames:    17.83s (avg: 0.156s/frame)
  Step 6 - Convert Arrays:    0.00s
  Step 7 - Forward Kinematics: 0.43s
  Step 8 - Save Data:         0.00s
Status: SUCCESS
==================================================

=== SUCCESS LOG - 2025-10-14 23:33:31 ===
Input file: /data/retarget/locomotion/raw/AMASS_SMPLXG/WEIZMANN/67/Fast_SShapeLR(8)_stageii.npz
Output file: ../robot/ik_based/pkl/015976.pkl
Robot type: unitree_g1
Processing time: 22.11 seconds

STEP-BY-STEP TIMING:
  Step 1 - Load SMPLX:        4.92s
  Step 2 - Align FPS:         1.00s
  Step 3 - Init Retarget:     0.27s
  Step 4 - Init Visualization: 0.00s
  Step 5 - Process Frames:    15.51s (avg: 0.141s/frame)
  Step 6 - Convert Arrays:    0.00s
  Step 7 - Forward Kinematics: 0.18s
  Step 8 - Save Data:         0.00s
Status: SUCCESS
==================================================

=== SUCCESS LOG - 2025-10-14 23:33:40 ===
Input file: /data/retarget/locomotion/raw/AMASS_SMPLXG/WEIZMANN/67/Fast_SShapeRL(10)_stageii.npz
Output file: ../robot/ik_based/pkl/015978.pkl
Robot type: unitree_g1
Processing time: 21.87 seconds

STEP-BY-STEP TIMING:
  Step 1 - Load SMPLX:        3.56s
  Step 2 - Align FPS:         2.08s
  Step 3 - Init Retarget:     0.41s
  Step 4 - Init Visualization: 0.00s
  Step 5 - Process Frames:    15.62s (avg: 0.168s/frame)
  Step 6 - Convert Arrays:    0.00s
  Step 7 - Forward Kinematics: 0.08s
  Step 8 - Save Data:         0.03s
Status: SUCCESS
==================================================

=== SUCCESS LOG - 2025-10-14 23:33:43 ===
Input file: /data/retarget/locomotion/raw/AMASS_SMPLXG/WEIZMANN/67/Fast_SShapeRL(11)_stageii.npz
Output file: ../robot/ik_based/pkl/015979.pkl
Robot type: unitree_g1
Processing time: 25.24 seconds

STEP-BY-STEP TIMING:
  Step 1 - Load SMPLX:        3.57s
  Step 2 - Align FPS:         2.01s
  Step 3 - Init Retarget:     0.46s
  Step 4 - Init Visualization: 0.00s
  Step 5 - Process Frames:    18.89s (avg: 0.222s/frame)
  Step 6 - Convert Arrays:    0.00s
  Step 7 - Forward Kinematics: 0.13s
  Step 8 - Save Data:         0.00s
Status: SUCCESS
==================================================

=== SUCCESS LOG - 2025-10-14 23:34:00 ===
Input file: /data/retarget/locomotion/raw/AMASS_SMPLXG/WEIZMANN/67/Fast_SShapeRL(12)_stageii.npz
Output file: ../robot/ik_based/pkl/015980.pkl
Robot type: unitree_g1
Processing time: 28.11 seconds

STEP-BY-STEP TIMING:
  Step 1 - Load SMPLX:        4.48s
  Step 2 - Align FPS:         2.79s
  Step 3 - Init Retarget:     0.73s
  Step 4 - Init Visualization: 0.00s
  Step 5 - Process Frames:    19.66s (avg: 0.216s/frame)
  Step 6 - Convert Arrays:    0.00s
  Step 7 - Forward Kinematics: 0.29s
  Step 8 - Save Data:         0.01s
Status: SUCCESS
==================================================

=== SUCCESS LOG - 2025-10-14 23:34:10 ===
Input file: /data/retarget/locomotion/raw/AMASS_SMPLXG/WEIZMANN/67/Fast_SShapeRL(13)_stageii.npz
Output file: ../robot/ik_based/pkl/015981.pkl
Robot type: unitree_g1
Processing time: 29.65 seconds

STEP-BY-STEP TIMING:
  Step 1 - Load SMPLX:        4.75s
  Step 2 - Align FPS:         3.53s
  Step 3 - Init Retarget:     0.98s
  Step 4 - Init Visualization: 0.00s
  Step 5 - Process Frames:    19.75s (avg: 0.210s/frame)
  Step 6 - Convert Arrays:    0.00s
  Step 7 - Forward Kinematics: 0.32s
  Step 8 - Save Data:         0.00s
Status: SUCCESS
==================================================

=== SUCCESS LOG - 2025-10-14 23:34:14 ===
Input file: /data/retarget/locomotion/raw/AMASS_SMPLXG/WEIZMANN/67/Fast_SShapeRL(14)_stageii.npz
Output file: ../robot/ik_based/pkl/015982.pkl
Robot type: unitree_g1
Processing time: 30.13 seconds

STEP-BY-STEP TIMING:
  Step 1 - Load SMPLX:        6.36s
  Step 2 - Align FPS:         3.88s
  Step 3 - Init Retarget:     0.62s
  Step 4 - Init Visualization: 0.00s
  Step 5 - Process Frames:    18.90s (avg: 0.197s/frame)
  Step 6 - Convert Arrays:    0.00s
  Step 7 - Forward Kinematics: 0.16s
  Step 8 - Save Data:         0.00s
Status: SUCCESS
==================================================

=== SUCCESS LOG - 2025-10-14 23:34:24 ===
Input file: /data/retarget/locomotion/raw/AMASS_SMPLXG/WEIZMANN/67/Fast_SShapeRL(15)_stageii.npz
Output file: ../robot/ik_based/pkl/015983.pkl
Robot type: unitree_g1
Processing time: 23.71 seconds

STEP-BY-STEP TIMING:
  Step 1 - Load SMPLX:        4.36s
  Step 2 - Align FPS:         1.36s
  Step 3 - Init Retarget:     0.32s
  Step 4 - Init Visualization: 0.00s
  Step 5 - Process Frames:    16.74s (avg: 0.178s/frame)
  Step 6 - Convert Arrays:    0.00s
  Step 7 - Forward Kinematics: 0.46s
  Step 8 - Save Data:         0.01s
Status: SUCCESS
==================================================

=== SUCCESS LOG - 2025-10-14 23:34:35 ===
Input file: /data/retarget/locomotion/raw/AMASS_SMPLXG/WEIZMANN/67/Fast_SShapeRL(16)_stageii.npz
Output file: ../robot/ik_based/pkl/015984.pkl
Robot type: unitree_g1
Processing time: 24.40 seconds

STEP-BY-STEP TIMING:
  Step 1 - Load SMPLX:        4.51s
  Step 2 - Align FPS:         1.68s
  Step 3 - Init Retarget:     0.33s
  Step 4 - Init Visualization: 0.00s
  Step 5 - Process Frames:    17.22s (avg: 0.200s/frame)
  Step 6 - Convert Arrays:    0.00s
  Step 7 - Forward Kinematics: 0.28s
  Step 8 - Save Data:         0.02s
Status: SUCCESS
==================================================

=== SUCCESS LOG - 2025-10-14 23:34:37 ===
Input file: /data/retarget/locomotion/raw/AMASS_SMPLXG/WEIZMANN/67/Fast_SShapeRL(17)_stageii.npz
Output file: ../robot/ik_based/pkl/015985.pkl
Robot type: unitree_g1
Processing time: 23.26 seconds

STEP-BY-STEP TIMING:
  Step 1 - Load SMPLX:        4.92s
  Step 2 - Align FPS:         1.78s
  Step 3 - Init Retarget:     0.71s
  Step 4 - Init Visualization: 0.00s
  Step 5 - Process Frames:    15.55s (avg: 0.162s/frame)
  Step 6 - Convert Arrays:    0.00s
  Step 7 - Forward Kinematics: 0.13s
  Step 8 - Save Data:         0.02s
Status: SUCCESS
==================================================

=== SUCCESS LOG - 2025-10-14 23:34:50 ===
Input file: /data/retarget/locomotion/raw/AMASS_SMPLXG/WEIZMANN/67/Fast_SShapeRL(18)_stageii.npz
Output file: ../robot/ik_based/pkl/015986.pkl
Robot type: unitree_g1
Processing time: 25.39 seconds

STEP-BY-STEP TIMING:
  Step 1 - Load SMPLX:        5.05s
  Step 2 - Align FPS:         2.75s
  Step 3 - Init Retarget:     0.49s
  Step 4 - Init Visualization: 0.00s
  Step 5 - Process Frames:    16.83s (avg: 0.175s/frame)
  Step 6 - Convert Arrays:    0.00s
  Step 7 - Forward Kinematics: 0.13s
  Step 8 - Save Data:         0.00s
Status: SUCCESS
==================================================

=== SUCCESS LOG - 2025-10-14 23:35:02 ===
Input file: /data/retarget/locomotion/raw/AMASS_SMPLXG/WEIZMANN/67/Fast_SShapeRL(19)_stageii.npz
Output file: ../robot/ik_based/pkl/015987.pkl
Robot type: unitree_g1
Processing time: 26.39 seconds

STEP-BY-STEP TIMING:
  Step 1 - Load SMPLX:        4.73s
  Step 2 - Align FPS:         3.20s
  Step 3 - Init Retarget:     0.46s
  Step 4 - Init Visualization: 0.00s
  Step 5 - Process Frames:    17.36s (avg: 0.183s/frame)
  Step 6 - Convert Arrays:    0.00s
  Step 7 - Forward Kinematics: 0.38s
  Step 8 - Save Data:         0.00s
Status: SUCCESS
==================================================

=== SUCCESS LOG - 2025-10-14 23:35:17 ===
Input file: /data/retarget/locomotion/raw/AMASS_SMPLXG/WEIZMANN/67/Fast_SShapeRL(2)_stageii.npz
Output file: ../robot/ik_based/pkl/015988.pkl
Robot type: unitree_g1
Processing time: 39.27 seconds

STEP-BY-STEP TIMING:
  Step 1 - Load SMPLX:        4.90s
  Step 2 - Align FPS:         3.01s
  Step 3 - Init Retarget:     0.34s
  Step 4 - Init Visualization: 0.00s
  Step 5 - Process Frames:    30.66s (avg: 0.301s/frame)
  Step 6 - Convert Arrays:    0.00s
  Step 7 - Forward Kinematics: 0.12s
  Step 8 - Save Data:         0.03s
Status: SUCCESS
==================================================

=== SUCCESS LOG - 2025-10-14 23:35:30 ===
Input file: /data/retarget/locomotion/raw/AMASS_SMPLXG/WEIZMANN/67/Fast_SShapeRL(20)_stageii.npz
Output file: ../robot/ik_based/pkl/015989.pkl
Robot type: unitree_g1
Processing time: 39.56 seconds

STEP-BY-STEP TIMING:
  Step 1 - Load SMPLX:        5.50s
  Step 2 - Align FPS:         3.93s
  Step 3 - Init Retarget:     0.78s
  Step 4 - Init Visualization: 0.00s
  Step 5 - Process Frames:    28.46s (avg: 0.290s/frame)
  Step 6 - Convert Arrays:    0.00s
  Step 7 - Forward Kinematics: 0.24s
  Step 8 - Save Data:         0.11s
Status: SUCCESS
==================================================

=== SUCCESS LOG - 2025-10-14 23:35:43 ===
Input file: /data/retarget/locomotion/raw/AMASS_SMPLXG/WEIZMANN/67/Fast_SShapeRL(21)_stageii.npz
Output file: ../robot/ik_based/pkl/015990.pkl
Robot type: unitree_g1
Processing time: 39.79 seconds

STEP-BY-STEP TIMING:
  Step 1 - Load SMPLX:        7.47s
  Step 2 - Align FPS:         5.91s
  Step 3 - Init Retarget:     1.54s
  Step 4 - Init Visualization: 0.00s
  Step 5 - Process Frames:    24.13s (avg: 0.265s/frame)
  Step 6 - Convert Arrays:    0.00s
  Step 7 - Forward Kinematics: 0.18s
  Step 8 - Save Data:         0.00s
Status: SUCCESS
==================================================

=== SUCCESS LOG - 2025-10-14 23:35:55 ===
Input file: /data/retarget/locomotion/raw/AMASS_SMPLXG/WEIZMANN/67/Fast_SShapeRL(3)_stageii.npz
Output file: ../robot/ik_based/pkl/015991.pkl
Robot type: unitree_g1
Processing time: 36.98 seconds

STEP-BY-STEP TIMING:
  Step 1 - Load SMPLX:        9.78s
  Step 2 - Align FPS:         5.90s
  Step 3 - Init Retarget:     0.38s
  Step 4 - Init Visualization: 0.00s
  Step 5 - Process Frames:    20.52s (avg: 0.223s/frame)
  Step 6 - Convert Arrays:    0.00s
  Step 7 - Forward Kinematics: 0.15s
  Step 8 - Save Data:         0.01s
Status: SUCCESS
==================================================

=== SUCCESS LOG - 2025-10-14 23:36:07 ===
Input file: /data/retarget/locomotion/raw/AMASS_SMPLXG/WEIZMANN/67/Fast_SShapeRL(5)_stageii.npz
Output file: ../robot/ik_based/pkl/015993.pkl
Robot type: unitree_g1
Processing time: 22.75 seconds

STEP-BY-STEP TIMING:
  Step 1 - Load SMPLX:        6.96s
  Step 2 - Align FPS:         2.46s
  Step 3 - Init Retarget:     0.53s
  Step 4 - Init Visualization: 0.00s
  Step 5 - Process Frames:    12.09s (avg: 0.125s/frame)
  Step 6 - Convert Arrays:    0.00s
  Step 7 - Forward Kinematics: 0.46s
  Step 8 - Save Data:         0.00s
Status: SUCCESS
==================================================

=== SUCCESS LOG - 2025-10-14 23:36:17 ===
Input file: /data/retarget/locomotion/raw/AMASS_SMPLXG/WEIZMANN/67/Fast_SShapeRL(6)_stageii.npz
Output file: ../robot/ik_based/pkl/015994.pkl
Robot type: unitree_g1
Processing time: 21.95 seconds

STEP-BY-STEP TIMING:
  Step 1 - Load SMPLX:        4.21s
  Step 2 - Align FPS:         1.08s
  Step 3 - Init Retarget:     0.28s
  Step 4 - Init Visualization: 0.00s
  Step 5 - Process Frames:    15.79s (avg: 0.166s/frame)
  Step 6 - Convert Arrays:    0.01s
  Step 7 - Forward Kinematics: 0.22s
  Step 8 - Save Data:         0.16s
Status: SUCCESS
==================================================

=== SUCCESS LOG - 2025-10-14 23:36:34 ===
Input file: /data/retarget/locomotion/raw/AMASS_SMPLXG/WEIZMANN/67/Fast_SShapeRL(4)_stageii.npz
Output file: ../robot/ik_based/pkl/015992.pkl
Robot type: unitree_g1
Processing time: 62.28 seconds

STEP-BY-STEP TIMING:
  Step 1 - Load SMPLX:        10.85s
  Step 2 - Align FPS:         6.16s
  Step 3 - Init Retarget:     0.48s
  Step 4 - Init Visualization: 0.00s
  Step 5 - Process Frames:    44.28s (avg: 0.293s/frame)
  Step 6 - Convert Arrays:    0.00s
  Step 7 - Forward Kinematics: 0.24s
  Step 8 - Save Data:         0.00s
Status: SUCCESS
==================================================

=== SUCCESS LOG - 2025-10-14 23:36:34 ===
Input file: /data/retarget/locomotion/raw/AMASS_SMPLXG/WEIZMANN/67/Fast_SShapeRL(7)_stageii.npz
Output file: ../robot/ik_based/pkl/015995.pkl
Robot type: unitree_g1
Processing time: 27.30 seconds

STEP-BY-STEP TIMING:
  Step 1 - Load SMPLX:        5.52s
  Step 2 - Align FPS:         3.25s
  Step 3 - Init Retarget:     0.78s
  Step 4 - Init Visualization: 0.00s
  Step 5 - Process Frames:    17.42s (avg: 0.191s/frame)
  Step 6 - Convert Arrays:    0.00s
  Step 7 - Forward Kinematics: 0.10s
  Step 8 - Save Data:         0.07s
Status: SUCCESS
==================================================

=== SUCCESS LOG - 2025-10-14 23:36:49 ===
Input file: /data/retarget/locomotion/raw/AMASS_SMPLXG/WEIZMANN/67/Fast_SShapeRL(8)_stageii.npz
Output file: ../robot/ik_based/pkl/015996.pkl
Robot type: unitree_g1
Processing time: 31.74 seconds

STEP-BY-STEP TIMING:
  Step 1 - Load SMPLX:        5.23s
  Step 2 - Align FPS:         3.05s
  Step 3 - Init Retarget:     0.57s
  Step 4 - Init Visualization: 0.00s
  Step 5 - Process Frames:    22.47s (avg: 0.237s/frame)
  Step 6 - Convert Arrays:    0.00s
  Step 7 - Forward Kinematics: 0.13s
  Step 8 - Save Data:         0.00s
Status: SUCCESS
==================================================

=== SUCCESS LOG - 2025-10-14 23:36:56 ===
Input file: /data/retarget/locomotion/raw/AMASS_SMPLXG/WEIZMANN/67/Fast_StraightLong(1)_stageii.npz
Output file: ../robot/ik_based/pkl/015998.pkl
Robot type: unitree_g1
Processing time: 21.04 seconds

STEP-BY-STEP TIMING:
  Step 1 - Load SMPLX:        5.78s
  Step 2 - Align FPS:         1.72s
  Step 3 - Init Retarget:     0.89s
  Step 4 - Init Visualization: 0.00s
  Step 5 - Process Frames:    12.13s (avg: 0.319s/frame)
  Step 6 - Convert Arrays:    0.00s
  Step 7 - Forward Kinematics: 0.26s
  Step 8 - Save Data:         0.00s
Status: SUCCESS
==================================================

=== ERROR LOG - 2025-10-14 23:37:00 ===
Input file: /data/retarget/locomotion/raw/AMASS_SMPLXG/WEIZMANN/67/male_stagei.npz
Output file: ../robot/ik_based/pkl/016375.pkl
Robot type: unitree_g1
Processing time: 4.04 seconds
Error message: 'pose_body is not a file in the archive'
Error type: KeyError
==================================================

=== SUCCESS LOG - 2025-10-14 23:37:04 ===
Input file: /data/retarget/locomotion/raw/AMASS_SMPLXG/WEIZMANN/67/Fast_StraightLong(10)_stageii.npz
Output file: ../robot/ik_based/pkl/015999.pkl
Robot type: unitree_g1
Processing time: 13.96 seconds

STEP-BY-STEP TIMING:
  Step 1 - Load SMPLX:        5.91s
  Step 2 - Align FPS:         1.82s
  Step 3 - Init Retarget:     0.61s
  Step 4 - Init Visualization: 0.00s
  Step 5 - Process Frames:    5.13s (avg: 0.128s/frame)
  Step 6 - Convert Arrays:    0.00s
  Step 7 - Forward Kinematics: 0.33s
  Step 8 - Save Data:         0.02s
Status: SUCCESS
==================================================

=== SUCCESS LOG - 2025-10-14 23:37:04 ===
Input file: /data/retarget/locomotion/raw/AMASS_SMPLXG/WEIZMANN/67/Fast_SShapeRL(9)_stageii.npz
Output file: ../robot/ik_based/pkl/015997.pkl
Robot type: unitree_g1
Processing time: 29.64 seconds

STEP-BY-STEP TIMING:
  Step 1 - Load SMPLX:        6.53s
  Step 2 - Align FPS:         4.84s
  Step 3 - Init Retarget:     1.13s
  Step 4 - Init Visualization: 0.00s
  Step 5 - Process Frames:    16.97s (avg: 0.162s/frame)
  Step 6 - Convert Arrays:    0.00s
  Step 7 - Forward Kinematics: 0.02s
  Step 8 - Save Data:         0.00s
Status: SUCCESS
==================================================

=== ERROR LOG - 2025-10-14 23:37:04 ===
Input file: /data/retarget/locomotion/raw/AMASS_SMPLXG/WEIZMANN/68/male_stagei.npz
Output file: ../robot/ik_based/pkl/016807.pkl
Robot type: unitree_g1
Processing time: 3.31 seconds
Error message: 'pose_body is not a file in the archive'
Error type: KeyError
==================================================

=== ERROR LOG - 2025-10-14 23:37:05 ===
Input file: /data/retarget/locomotion/raw/AMASS_SMPLXG/WEIZMANN/69/male_stagei.npz
Output file: ../robot/ik_based/pkl/017254.pkl
Robot type: unitree_g1
Processing time: 0.85 seconds
Error message: 'pose_body is not a file in the archive'
Error type: KeyError
==================================================

=== ERROR LOG - 2025-10-14 23:37:05 ===
Input file: /data/retarget/locomotion/raw/AMASS_SMPLXG/WEIZMANN/70/male_stagei.npz
Output file: ../robot/ik_based/pkl/017756.pkl
Robot type: unitree_g1
Processing time: 0.91 seconds
Error message: 'pose_body is not a file in the archive'
Error type: KeyError
==================================================

=== FINAL STATISTICS - 2025-10-14 23:37:05 ===
Total files processed: 3757
Successful: 3683
Failed: 74
, Total processing time: 65871.97 seconds
 Total execution time: 22131.69 seconds
Average processing time per file: 17.89 seconds
Average frames per file: 404.1 frames (917 files with frames)
Total frames processed: 370,599 frames
==================================================
