
=== ERROR LOG - 2025-10-15 10:33:41 ===
Input file: /data/retarget/locomotion/raw/AMASS_SMPLXG/HDM05/tr/HDM_tr_03-05_02_120_stageii.npz
Output file: ../robot/ik_based/pkl/010531.pkl
Robot type: unitree_g1
Processing time: 64.25 seconds

STEP-BY-STEP TIMING (FAILED):
  Load Smplx: 21.91s
  Align Fps: 6.90s
  Init Retarget: 0.26s
  Init Visualization: 0.00s
  Process Frames: 35.16s (avg: 0.031s/frame)
  Convert Arrays: 0.00s
Error message: [Errno 2] No such file or directory: '/data/retarget/locomotion/GMR/general_motion_retargeting/../assets/unitree_g1/g1_mocap_29dof.xml'
Error type: FileNotFoundError
==================================================

=== FILE FAILURE - 2025-10-15 10:33:42 ===
File index: 010531
File number: 2442/9667
Input file: /data/retarget/locomotion/raw/AMASS_SMPLXG/HDM05/tr/HDM_tr_03-05_02_120_stageii.npz
Output file: ../robot/ik_based/pkl/010531.pkl
Processing time: 64.25 seconds
Total file time: 65.00 seconds
Status: FAILED
==================================================

=== ERROR LOG - 2025-10-15 10:33:42 ===
Input file: /data/retarget/locomotion/raw/AMASS_SMPLXG/HDM05/tr/HDM_tr_03-05_03_120_stageii.npz
Output file: ../robot/ik_based/pkl/010532.pkl
Robot type: unitree_g1
Processing time: 0.00 seconds
Error message: Unknown model type body, exiting!
Error type: ValueError
==================================================

=== FILE FAILURE - 2025-10-15 10:33:42 ===
File index: 010532
File number: 2443/9667
Input file: /data/retarget/locomotion/raw/AMASS_SMPLXG/HDM05/tr/HDM_tr_03-05_03_120_stageii.npz
Output file: ../robot/ik_based/pkl/010532.pkl
Processing time: 0.00 seconds
Total file time: 0.06 seconds
Status: FAILED
==================================================

=== ERROR LOG - 2025-10-15 10:33:42 ===
Input file: /data/retarget/locomotion/raw/AMASS_SMPLXG/HDM05/tr/HDM_tr_03-10_02_120_stageii.npz
Output file: ../robot/ik_based/pkl/010533.pkl
Robot type: unitree_g1
Processing time: 0.00 seconds
Error message: Unknown model type body, exiting!
Error type: ValueError
==================================================

=== FILE FAILURE - 2025-10-15 10:33:42 ===
File index: 010533
File number: 2444/9667
Input file: /data/retarget/locomotion/raw/AMASS_SMPLXG/HDM05/tr/HDM_tr_03-10_02_120_stageii.npz
Output file: ../robot/ik_based/pkl/010533.pkl
Processing time: 0.00 seconds
Total file time: 0.05 seconds
Status: FAILED
==================================================

=== ERROR LOG - 2025-10-15 10:33:42 ===
Input file: /data/retarget/locomotion/raw/AMASS_SMPLXG/HDM05/tr/HDM_tr_03-10_03_120_stageii.npz
Output file: ../robot/ik_based/pkl/010534.pkl
Robot type: unitree_g1
Processing time: 0.00 seconds
Error message: Unknown model type body, exiting!
Error type: ValueError
==================================================

=== FILE FAILURE - 2025-10-15 10:33:42 ===
File index: 010534
File number: 2445/9667
Input file: /data/retarget/locomotion/raw/AMASS_SMPLXG/HDM05/tr/HDM_tr_03-10_03_120_stageii.npz
Output file: ../robot/ik_based/pkl/010534.pkl
Processing time: 0.00 seconds
Total file time: 0.05 seconds
Status: FAILED
==================================================

=== ERROR LOG - 2025-10-15 10:33:42 ===
Input file: /data/retarget/locomotion/raw/AMASS_SMPLXG/HDM05/tr/HDM_tr_03-11_01_120_stageii.npz
Output file: ../robot/ik_based/pkl/010535.pkl
Robot type: unitree_g1
Processing time: 0.00 seconds
Error message: Unknown model type body, exiting!
Error type: ValueError
==================================================

=== FILE FAILURE - 2025-10-15 10:33:42 ===
File index: 010535
File number: 2446/9667
Input file: /data/retarget/locomotion/raw/AMASS_SMPLXG/HDM05/tr/HDM_tr_03-11_01_120_stageii.npz
Output file: ../robot/ik_based/pkl/010535.pkl
Processing time: 0.00 seconds
Total file time: 0.05 seconds
Status: FAILED
==================================================

=== ERROR LOG - 2025-10-15 10:33:42 ===
Input file: /data/retarget/locomotion/raw/AMASS_SMPLXG/HDM05/tr/HDM_tr_03-11_02_120_stageii.npz
Output file: ../robot/ik_based/pkl/010536.pkl
Robot type: unitree_g1
Processing time: 0.00 seconds
Error message: Unknown model type body, exiting!
Error type: ValueError
==================================================

=== FILE FAILURE - 2025-10-15 10:33:42 ===
File index: 010536
File number: 2447/9667
Input file: /data/retarget/locomotion/raw/AMASS_SMPLXG/HDM05/tr/HDM_tr_03-11_02_120_stageii.npz
Output file: ../robot/ik_based/pkl/010536.pkl
Processing time: 0.00 seconds
Total file time: 0.06 seconds
Status: FAILED
==================================================

=== ERROR LOG - 2025-10-15 10:33:42 ===
Input file: /data/retarget/locomotion/raw/AMASS_SMPLXG/HDM05/tr/HDM_tr_03-11_03_120_stageii.npz
Output file: ../robot/ik_based/pkl/010537.pkl
Robot type: unitree_g1
Processing time: 0.00 seconds
Error message: Unknown model type body, exiting!
Error type: ValueError
==================================================

=== FILE FAILURE - 2025-10-15 10:33:42 ===
File index: 010537
File number: 2448/9667
Input file: /data/retarget/locomotion/raw/AMASS_SMPLXG/HDM05/tr/HDM_tr_03-11_03_120_stageii.npz
Output file: ../robot/ik_based/pkl/010537.pkl
Processing time: 0.00 seconds
Total file time: 0.06 seconds
Status: FAILED
==================================================

=== ERROR LOG - 2025-10-15 10:33:42 ===
Input file: /data/retarget/locomotion/raw/AMASS_SMPLXG/HDM05/tr/HDM_tr_04-01_01_120_stageii.npz
Output file: ../robot/ik_based/pkl/010538.pkl
Robot type: unitree_g1
Processing time: 0.00 seconds
Error message: Unknown model type body, exiting!
Error type: ValueError
==================================================

=== FILE FAILURE - 2025-10-15 10:33:42 ===
File index: 010538
File number: 2449/9667
Input file: /data/retarget/locomotion/raw/AMASS_SMPLXG/HDM05/tr/HDM_tr_04-01_01_120_stageii.npz
Output file: ../robot/ik_based/pkl/010538.pkl
Processing time: 0.00 seconds
Total file time: 0.06 seconds
Status: FAILED
==================================================

=== ERROR LOG - 2025-10-15 10:33:42 ===
Input file: /data/retarget/locomotion/raw/AMASS_SMPLXG/HDM05/tr/HDM_tr_05-01_02_120_stageii.npz
Output file: ../robot/ik_based/pkl/010539.pkl
Robot type: unitree_g1
Processing time: 0.00 seconds
Error message: Unknown model type body, exiting!
Error type: ValueError
==================================================

=== FILE FAILURE - 2025-10-15 10:33:42 ===
File index: 010539
File number: 2450/9667
Input file: /data/retarget/locomotion/raw/AMASS_SMPLXG/HDM05/tr/HDM_tr_05-01_02_120_stageii.npz
Output file: ../robot/ik_based/pkl/010539.pkl
Processing time: 0.00 seconds
Total file time: 0.06 seconds
Status: FAILED
==================================================

=== ERROR LOG - 2025-10-15 10:33:42 ===
Input file: /data/retarget/locomotion/raw/AMASS_SMPLXG/HDM05/tr/HDM_tr_05-01_03_120_stageii.npz
Output file: ../robot/ik_based/pkl/010540.pkl
Robot type: unitree_g1
Processing time: 0.00 seconds
Error message: Unknown model type body, exiting!
Error type: ValueError
==================================================

=== FILE FAILURE - 2025-10-15 10:33:42 ===
File index: 010540
File number: 2451/9667
Input file: /data/retarget/locomotion/raw/AMASS_SMPLXG/HDM05/tr/HDM_tr_05-01_03_120_stageii.npz
Output file: ../robot/ik_based/pkl/010540.pkl
Processing time: 0.00 seconds
Total file time: 0.06 seconds
Status: FAILED
==================================================

=== ERROR LOG - 2025-10-15 10:33:42 ===
Input file: /data/retarget/locomotion/raw/AMASS_SMPLXG/HDM05/tr/HDM_tr_05-02_01_120_stageii.npz
Output file: ../robot/ik_based/pkl/010541.pkl
Robot type: unitree_g1
Processing time: 0.00 seconds
Error message: Unknown model type body, exiting!
Error type: ValueError
==================================================

=== FILE FAILURE - 2025-10-15 10:33:42 ===
File index: 010541
File number: 2452/9667
Input file: /data/retarget/locomotion/raw/AMASS_SMPLXG/HDM05/tr/HDM_tr_05-02_01_120_stageii.npz
Output file: ../robot/ik_based/pkl/010541.pkl
Processing time: 0.00 seconds
Total file time: 0.06 seconds
Status: FAILED
==================================================

=== ERROR LOG - 2025-10-15 10:33:42 ===
Input file: /data/retarget/locomotion/raw/AMASS_SMPLXG/HDM05/tr/HDM_tr_05-02_02_120_stageii.npz
Output file: ../robot/ik_based/pkl/010542.pkl
Robot type: unitree_g1
Processing time: 0.00 seconds
Error message: Unknown model type body, exiting!
Error type: ValueError
==================================================

=== FILE FAILURE - 2025-10-15 10:33:43 ===
File index: 010542
File number: 2453/9667
Input file: /data/retarget/locomotion/raw/AMASS_SMPLXG/HDM05/tr/HDM_tr_05-02_02_120_stageii.npz
Output file: ../robot/ik_based/pkl/010542.pkl
Processing time: 0.00 seconds
Total file time: 0.06 seconds
Status: FAILED
==================================================

=== ERROR LOG - 2025-10-15 10:33:43 ===
Input file: /data/retarget/locomotion/raw/AMASS_SMPLXG/HDM05/tr/HDM_tr_05-02_03_120_stageii.npz
Output file: ../robot/ik_based/pkl/010543.pkl
Robot type: unitree_g1
Processing time: 0.00 seconds
Error message: Unknown model type body, exiting!
Error type: ValueError
==================================================

=== FILE FAILURE - 2025-10-15 10:33:43 ===
File index: 010543
File number: 2454/9667
Input file: /data/retarget/locomotion/raw/AMASS_SMPLXG/HDM05/tr/HDM_tr_05-02_03_120_stageii.npz
Output file: ../robot/ik_based/pkl/010543.pkl
Processing time: 0.00 seconds
Total file time: 0.06 seconds
Status: FAILED
==================================================

=== ERROR LOG - 2025-10-15 10:33:43 ===
Input file: /data/retarget/locomotion/raw/AMASS_SMPLXG/HDM05/tr/HDM_tr_05-03_01_120_stageii.npz
Output file: ../robot/ik_based/pkl/010544.pkl
Robot type: unitree_g1
Processing time: 0.00 seconds
Error message: Unknown model type body, exiting!
Error type: ValueError
==================================================

=== FILE FAILURE - 2025-10-15 10:33:43 ===
File index: 010544
File number: 2455/9667
Input file: /data/retarget/locomotion/raw/AMASS_SMPLXG/HDM05/tr/HDM_tr_05-03_01_120_stageii.npz
Output file: ../robot/ik_based/pkl/010544.pkl
Processing time: 0.00 seconds
Total file time: 0.06 seconds
Status: FAILED
==================================================

=== ERROR LOG - 2025-10-15 10:33:43 ===
Input file: /data/retarget/locomotion/raw/AMASS_SMPLXG/HDM05/tr/HDM_tr_05-03_02_120_stageii.npz
Output file: ../robot/ik_based/pkl/010545.pkl
Robot type: unitree_g1
Processing time: 0.00 seconds
Error message: Unknown model type body, exiting!
Error type: ValueError
==================================================

=== FILE FAILURE - 2025-10-15 10:33:43 ===
File index: 010545
File number: 2456/9667
Input file: /data/retarget/locomotion/raw/AMASS_SMPLXG/HDM05/tr/HDM_tr_05-03_02_120_stageii.npz
Output file: ../robot/ik_based/pkl/010545.pkl
Processing time: 0.00 seconds
Total file time: 0.06 seconds
Status: FAILED
==================================================

=== ERROR LOG - 2025-10-15 10:33:43 ===
Input file: /data/retarget/locomotion/raw/AMASS_SMPLXG/HDM05/tr/HDM_tr_05-03_03_120_stageii.npz
Output file: ../robot/ik_based/pkl/010546.pkl
Robot type: unitree_g1
Processing time: 0.00 seconds
Error message: Unknown model type body, exiting!
Error type: ValueError
==================================================

=== FILE FAILURE - 2025-10-15 10:33:43 ===
File index: 010546
File number: 2457/9667
Input file: /data/retarget/locomotion/raw/AMASS_SMPLXG/HDM05/tr/HDM_tr_05-03_03_120_stageii.npz
Output file: ../robot/ik_based/pkl/010546.pkl
Processing time: 0.00 seconds
Total file time: 0.06 seconds
Status: FAILED
==================================================

=== ERROR LOG - 2025-10-15 10:33:43 ===
Input file: /data/retarget/locomotion/raw/AMASS_SMPLXG/HDM05/tr/HDM_tr_05-03_04_120_stageii.npz
Output file: ../robot/ik_based/pkl/010547.pkl
Robot type: unitree_g1
Processing time: 0.00 seconds
Error message: Unknown model type body, exiting!
Error type: ValueError
==================================================

=== FILE FAILURE - 2025-10-15 10:33:43 ===
File index: 010547
File number: 2458/9667
Input file: /data/retarget/locomotion/raw/AMASS_SMPLXG/HDM05/tr/HDM_tr_05-03_04_120_stageii.npz
Output file: ../robot/ik_based/pkl/010547.pkl
Processing time: 0.00 seconds
Total file time: 0.06 seconds
Status: FAILED
==================================================

=== ERROR LOG - 2025-10-15 10:33:43 ===
Input file: /data/retarget/locomotion/raw/AMASS_SMPLXG/HDM05/tr/HDM_tr_06-01_01_120_stageii.npz
Output file: ../robot/ik_based/pkl/010548.pkl
Robot type: unitree_g1
Processing time: 0.00 seconds
Error message: Unknown model type body, exiting!
Error type: ValueError
==================================================

=== FILE FAILURE - 2025-10-15 10:33:43 ===
File index: 010548
File number: 2459/9667
Input file: /data/retarget/locomotion/raw/AMASS_SMPLXG/HDM05/tr/HDM_tr_06-01_01_120_stageii.npz
Output file: ../robot/ik_based/pkl/010548.pkl
Processing time: 0.00 seconds
Total file time: 0.06 seconds
Status: FAILED
==================================================

=== ERROR LOG - 2025-10-15 10:33:43 ===
Input file: /data/retarget/locomotion/raw/AMASS_SMPLXG/HDM05/tr/HDM_tr_06-01_02_120_stageii.npz
Output file: ../robot/ik_based/pkl/010549.pkl
Robot type: unitree_g1
Processing time: 0.00 seconds
Error message: Unknown model type body, exiting!
Error type: ValueError
==================================================

=== FILE FAILURE - 2025-10-15 10:33:43 ===
File index: 010549
File number: 2460/9667
Input file: /data/retarget/locomotion/raw/AMASS_SMPLXG/HDM05/tr/HDM_tr_06-01_02_120_stageii.npz
Output file: ../robot/ik_based/pkl/010549.pkl
Processing time: 0.00 seconds
Total file time: 0.06 seconds
Status: FAILED
==================================================

=== ERROR LOG - 2025-10-15 10:33:43 ===
Input file: /data/retarget/locomotion/raw/AMASS_SMPLXG/HDM05/tr/male_stagei.npz
Output file: ../robot/ik_based/pkl/010550.pkl
Robot type: unitree_g1
Processing time: 0.00 seconds
Error message: Unknown model type body, exiting!
Error type: ValueError
==================================================

=== FILE FAILURE - 2025-10-15 10:33:43 ===
File index: 010550
File number: 2461/9667
Input file: /data/retarget/locomotion/raw/AMASS_SMPLXG/HDM05/tr/male_stagei.npz
Output file: ../robot/ik_based/pkl/010550.pkl
Processing time: 0.00 seconds
Total file time: 0.06 seconds
Status: FAILED
==================================================

=== ERROR LOG - 2025-10-15 10:33:43 ===
Input file: /data/retarget/locomotion/raw/AMASS_SMPLXG/HUMAN4D/Subject1_2_Aude/INF_Dancing_S1S2_02_stageii.npz
Output file: ../robot/ik_based/pkl/010551.pkl
Robot type: unitree_g1
Processing time: 0.00 seconds
Error message: Unknown model type body, exiting!
Error type: ValueError
==================================================

=== FILE FAILURE - 2025-10-15 10:33:43 ===
File index: 010551
File number: 2462/9667
Input file: /data/retarget/locomotion/raw/AMASS_SMPLXG/HUMAN4D/Subject1_2_Aude/INF_Dancing_S1S2_02_stageii.npz
Output file: ../robot/ik_based/pkl/010551.pkl
Processing time: 0.00 seconds
Total file time: 0.06 seconds
Status: FAILED
==================================================

=== ERROR LOG - 2025-10-15 10:33:43 ===
Input file: /data/retarget/locomotion/raw/AMASS_SMPLXG/HUMAN4D/Subject1_2_Aude/INF_PhysicalExamination_S1S2_02b_stageii.npz
Output file: ../robot/ik_based/pkl/010552.pkl
Robot type: unitree_g1
Processing time: 0.00 seconds
Error message: Unknown model type body, exiting!
Error type: ValueError
==================================================

=== FILE FAILURE - 2025-10-15 10:33:43 ===
File index: 010552
File number: 2463/9667
Input file: /data/retarget/locomotion/raw/AMASS_SMPLXG/HUMAN4D/Subject1_2_Aude/INF_PhysicalExamination_S1S2_02b_stageii.npz
Output file: ../robot/ik_based/pkl/010552.pkl
Processing time: 0.00 seconds
Total file time: 0.06 seconds
Status: FAILED
==================================================

=== ERROR LOG - 2025-10-15 10:33:43 ===
Input file: /data/retarget/locomotion/raw/AMASS_SMPLXG/HUMAN4D/Subject1_2_Aude/INF_PlayingCards_S1S2_01_stageii.npz
Output file: ../robot/ik_based/pkl/010553.pkl
Robot type: unitree_g1
Processing time: 0.00 seconds
Error message: Unknown model type body, exiting!
Error type: ValueError
==================================================

=== FILE FAILURE - 2025-10-15 10:33:43 ===
File index: 010553
File number: 2464/9667
Input file: /data/retarget/locomotion/raw/AMASS_SMPLXG/HUMAN4D/Subject1_2_Aude/INF_PlayingCards_S1S2_01_stageii.npz
Output file: ../robot/ik_based/pkl/010553.pkl
Processing time: 0.00 seconds
Total file time: 0.06 seconds
Status: FAILED
==================================================

=== ERROR LOG - 2025-10-15 10:33:43 ===
Input file: /data/retarget/locomotion/raw/AMASS_SMPLXG/HUMAN4D/Subject1_2_Aude/INF_TalkingWhispering_S1S2_01_stageii.npz
Output file: ../robot/ik_based/pkl/010554.pkl
Robot type: unitree_g1
Processing time: 0.00 seconds
Error message: Unknown model type body, exiting!
Error type: ValueError
==================================================

=== FILE FAILURE - 2025-10-15 10:33:43 ===
File index: 010554
File number: 2465/9667
Input file: /data/retarget/locomotion/raw/AMASS_SMPLXG/HUMAN4D/Subject1_2_Aude/INF_TalkingWhispering_S1S2_01_stageii.npz
Output file: ../robot/ik_based/pkl/010554.pkl
Processing time: 0.00 seconds
Total file time: 0.06 seconds
Status: FAILED
==================================================

=== ERROR LOG - 2025-10-15 10:33:43 ===
Input file: /data/retarget/locomotion/raw/AMASS_SMPLXG/HUMAN4D/Subject1_2_Aude/INF_WatchingFootball_S1S2_01_stageii.npz
Output file: ../robot/ik_based/pkl/010555.pkl
Robot type: unitree_g1
Processing time: 0.00 seconds
Error message: Unknown model type body, exiting!
Error type: ValueError
==================================================

=== FILE FAILURE - 2025-10-15 10:33:43 ===
File index: 010555
File number: 2466/9667
Input file: /data/retarget/locomotion/raw/AMASS_SMPLXG/HUMAN4D/Subject1_2_Aude/INF_WatchingFootball_S1S2_01_stageii.npz
Output file: ../robot/ik_based/pkl/010555.pkl
Processing time: 0.00 seconds
Total file time: 0.06 seconds
Status: FAILED
==================================================

=== ERROR LOG - 2025-10-15 10:33:43 ===
Input file: /data/retarget/locomotion/raw/AMASS_SMPLXG/HUMAN4D/Subject1_2_Aude/RGB_Dancing_S1S2_02_stageii.npz
Output file: ../robot/ik_based/pkl/010556.pkl
Robot type: unitree_g1
Processing time: 0.00 seconds
Error message: Unknown model type body, exiting!
Error type: ValueError
==================================================

=== FILE FAILURE - 2025-10-15 10:33:43 ===
File index: 010556
File number: 2467/9667
Input file: /data/retarget/locomotion/raw/AMASS_SMPLXG/HUMAN4D/Subject1_2_Aude/RGB_Dancing_S1S2_02_stageii.npz
Output file: ../robot/ik_based/pkl/010556.pkl
Processing time: 0.00 seconds
Total file time: 0.06 seconds
Status: FAILED
==================================================

=== ERROR LOG - 2025-10-15 10:33:43 ===
Input file: /data/retarget/locomotion/raw/AMASS_SMPLXG/HUMAN4D/Subject1_2_Aude/RGB_PhysicalExamination_S1S2_02_stageii.npz
Output file: ../robot/ik_based/pkl/010557.pkl
Robot type: unitree_g1
Processing time: 0.00 seconds
Error message: Unknown model type body, exiting!
Error type: ValueError
==================================================

=== FILE FAILURE - 2025-10-15 10:33:44 ===
File index: 010557
File number: 2468/9667
Input file: /data/retarget/locomotion/raw/AMASS_SMPLXG/HUMAN4D/Subject1_2_Aude/RGB_PhysicalExamination_S1S2_02_stageii.npz
Output file: ../robot/ik_based/pkl/010557.pkl
Processing time: 0.00 seconds
Total file time: 0.06 seconds
Status: FAILED
==================================================

=== ERROR LOG - 2025-10-15 10:33:44 ===
Input file: /data/retarget/locomotion/raw/AMASS_SMPLXG/HUMAN4D/Subject1_2_Aude/RGB_PlayingCards_S1S2_01_stageii.npz
Output file: ../robot/ik_based/pkl/010558.pkl
Robot type: unitree_g1
Processing time: 0.00 seconds
Error message: Unknown model type body, exiting!
Error type: ValueError
==================================================

=== FILE FAILURE - 2025-10-15 10:33:44 ===
File index: 010558
File number: 2469/9667
Input file: /data/retarget/locomotion/raw/AMASS_SMPLXG/HUMAN4D/Subject1_2_Aude/RGB_PlayingCards_S1S2_01_stageii.npz
Output file: ../robot/ik_based/pkl/010558.pkl
Processing time: 0.00 seconds
Total file time: 0.06 seconds
Status: FAILED
==================================================

=== ERROR LOG - 2025-10-15 10:33:44 ===
Input file: /data/retarget/locomotion/raw/AMASS_SMPLXG/HUMAN4D/Subject1_2_Aude/RGB_TalkingWhispering_S1S2_01_stageii.npz
Output file: ../robot/ik_based/pkl/010559.pkl
Robot type: unitree_g1
Processing time: 0.00 seconds
Error message: Unknown model type body, exiting!
Error type: ValueError
==================================================

=== FILE FAILURE - 2025-10-15 10:33:44 ===
File index: 010559
File number: 2470/9667
Input file: /data/retarget/locomotion/raw/AMASS_SMPLXG/HUMAN4D/Subject1_2_Aude/RGB_TalkingWhispering_S1S2_01_stageii.npz
Output file: ../robot/ik_based/pkl/010559.pkl
Processing time: 0.00 seconds
Total file time: 0.06 seconds
Status: FAILED
==================================================

=== ERROR LOG - 2025-10-15 10:33:44 ===
Input file: /data/retarget/locomotion/raw/AMASS_SMPLXG/HUMAN4D/Subject1_2_Aude/RGB_WatchingFootball_S1S2_02_stageii.npz
Output file: ../robot/ik_based/pkl/010560.pkl
Robot type: unitree_g1
Processing time: 0.00 seconds
Error message: Unknown model type body, exiting!
Error type: ValueError
==================================================

=== FILE FAILURE - 2025-10-15 10:33:44 ===
File index: 010560
File number: 2471/9667
Input file: /data/retarget/locomotion/raw/AMASS_SMPLXG/HUMAN4D/Subject1_2_Aude/RGB_WatchingFootball_S1S2_02_stageii.npz
Output file: ../robot/ik_based/pkl/010560.pkl
Processing time: 0.00 seconds
Total file time: 0.06 seconds
Status: FAILED
==================================================

=== ERROR LOG - 2025-10-15 10:33:44 ===
Input file: /data/retarget/locomotion/raw/AMASS_SMPLXG/HUMAN4D/Subject1_2_Aude/female_stagei.npz
Output file: ../robot/ik_based/pkl/010561.pkl
Robot type: unitree_g1
Processing time: 0.00 seconds
Error message: Unknown model type body, exiting!
Error type: ValueError
==================================================

=== FILE FAILURE - 2025-10-15 10:33:44 ===
File index: 010561
File number: 2472/9667
Input file: /data/retarget/locomotion/raw/AMASS_SMPLXG/HUMAN4D/Subject1_2_Aude/female_stagei.npz
Output file: ../robot/ik_based/pkl/010561.pkl
Processing time: 0.00 seconds
Total file time: 0.06 seconds
Status: FAILED
==================================================

=== ERROR LOG - 2025-10-15 10:33:44 ===
Input file: /data/retarget/locomotion/raw/AMASS_SMPLXG/HUMAN4D/Subject1_2_Karim/INF_Dancing_S1S2_02_stageii.npz
Output file: ../robot/ik_based/pkl/010562.pkl
Robot type: unitree_g1
Processing time: 0.00 seconds
Error message: Unknown model type body, exiting!
Error type: ValueError
==================================================

=== FILE FAILURE - 2025-10-15 10:33:44 ===
File index: 010562
File number: 2473/9667
Input file: /data/retarget/locomotion/raw/AMASS_SMPLXG/HUMAN4D/Subject1_2_Karim/INF_Dancing_S1S2_02_stageii.npz
Output file: ../robot/ik_based/pkl/010562.pkl
Processing time: 0.00 seconds
Total file time: 0.06 seconds
Status: FAILED
==================================================

=== ERROR LOG - 2025-10-15 10:33:44 ===
Input file: /data/retarget/locomotion/raw/AMASS_SMPLXG/HUMAN4D/Subject1_2_Karim/INF_PhysicalExamination_S1S2_02b_stageii.npz
Output file: ../robot/ik_based/pkl/010563.pkl
Robot type: unitree_g1
Processing time: 0.00 seconds
Error message: Unknown model type body, exiting!
Error type: ValueError
==================================================

=== FILE FAILURE - 2025-10-15 10:33:44 ===
File index: 010563
File number: 2474/9667
Input file: /data/retarget/locomotion/raw/AMASS_SMPLXG/HUMAN4D/Subject1_2_Karim/INF_PhysicalExamination_S1S2_02b_stageii.npz
Output file: ../robot/ik_based/pkl/010563.pkl
Processing time: 0.00 seconds
Total file time: 0.06 seconds
Status: FAILED
==================================================

=== ERROR LOG - 2025-10-15 10:33:44 ===
Input file: /data/retarget/locomotion/raw/AMASS_SMPLXG/HUMAN4D/Subject1_2_Karim/INF_PlayingCards_S1S2_01_stageii.npz
Output file: ../robot/ik_based/pkl/010564.pkl
Robot type: unitree_g1
Processing time: 0.00 seconds
Error message: Unknown model type body, exiting!
Error type: ValueError
==================================================

=== FILE FAILURE - 2025-10-15 10:33:44 ===
File index: 010564
File number: 2475/9667
Input file: /data/retarget/locomotion/raw/AMASS_SMPLXG/HUMAN4D/Subject1_2_Karim/INF_PlayingCards_S1S2_01_stageii.npz
Output file: ../robot/ik_based/pkl/010564.pkl
Processing time: 0.00 seconds
Total file time: 0.06 seconds
Status: FAILED
==================================================

=== ERROR LOG - 2025-10-15 10:33:44 ===
Input file: /data/retarget/locomotion/raw/AMASS_SMPLXG/HUMAN4D/Subject1_2_Karim/INF_TalkingWhispering_S1S2_01_stageii.npz
Output file: ../robot/ik_based/pkl/010565.pkl
Robot type: unitree_g1
Processing time: 0.00 seconds
Error message: Unknown model type body, exiting!
Error type: ValueError
==================================================

=== FILE FAILURE - 2025-10-15 10:33:44 ===
File index: 010565
File number: 2476/9667
Input file: /data/retarget/locomotion/raw/AMASS_SMPLXG/HUMAN4D/Subject1_2_Karim/INF_TalkingWhispering_S1S2_01_stageii.npz
Output file: ../robot/ik_based/pkl/010565.pkl
Processing time: 0.00 seconds
Total file time: 0.06 seconds
Status: FAILED
==================================================

=== ERROR LOG - 2025-10-15 10:33:44 ===
Input file: /data/retarget/locomotion/raw/AMASS_SMPLXG/HUMAN4D/Subject1_2_Karim/INF_WatchingFootball_S1S2_01_stageii.npz
Output file: ../robot/ik_based/pkl/010566.pkl
Robot type: unitree_g1
Processing time: 0.00 seconds
Error message: Unknown model type body, exiting!
Error type: ValueError
==================================================

=== FILE FAILURE - 2025-10-15 10:33:44 ===
File index: 010566
File number: 2477/9667
Input file: /data/retarget/locomotion/raw/AMASS_SMPLXG/HUMAN4D/Subject1_2_Karim/INF_WatchingFootball_S1S2_01_stageii.npz
Output file: ../robot/ik_based/pkl/010566.pkl
Processing time: 0.00 seconds
Total file time: 0.06 seconds
Status: FAILED
==================================================

=== ERROR LOG - 2025-10-15 10:33:44 ===
Input file: /data/retarget/locomotion/raw/AMASS_SMPLXG/HUMAN4D/Subject1_2_Karim/RGB_Dancing_S1S2_02_stageii.npz
Output file: ../robot/ik_based/pkl/010567.pkl
Robot type: unitree_g1
Processing time: 0.00 seconds
Error message: Unknown model type body, exiting!
Error type: ValueError
==================================================

=== FILE FAILURE - 2025-10-15 10:33:44 ===
File index: 010567
File number: 2478/9667
Input file: /data/retarget/locomotion/raw/AMASS_SMPLXG/HUMAN4D/Subject1_2_Karim/RGB_Dancing_S1S2_02_stageii.npz
Output file: ../robot/ik_based/pkl/010567.pkl
Processing time: 0.00 seconds
Total file time: 0.06 seconds
Status: FAILED
==================================================

=== ERROR LOG - 2025-10-15 10:33:44 ===
Input file: /data/retarget/locomotion/raw/AMASS_SMPLXG/HUMAN4D/Subject1_2_Karim/RGB_PhysicalExamination_S1S2_02_stageii.npz
Output file: ../robot/ik_based/pkl/010568.pkl
Robot type: unitree_g1
Processing time: 0.00 seconds
Error message: Unknown model type body, exiting!
Error type: ValueError
==================================================

=== FILE FAILURE - 2025-10-15 10:33:44 ===
File index: 010568
File number: 2479/9667
Input file: /data/retarget/locomotion/raw/AMASS_SMPLXG/HUMAN4D/Subject1_2_Karim/RGB_PhysicalExamination_S1S2_02_stageii.npz
Output file: ../robot/ik_based/pkl/010568.pkl
Processing time: 0.00 seconds
Total file time: 0.06 seconds
Status: FAILED
==================================================

=== ERROR LOG - 2025-10-15 10:33:44 ===
Input file: /data/retarget/locomotion/raw/AMASS_SMPLXG/HUMAN4D/Subject1_2_Karim/RGB_PlayingCards_S1S2_01_stageii.npz
Output file: ../robot/ik_based/pkl/010569.pkl
Robot type: unitree_g1
Processing time: 0.00 seconds
Error message: Unknown model type body, exiting!
Error type: ValueError
==================================================

=== FILE FAILURE - 2025-10-15 10:33:44 ===
File index: 010569
File number: 2480/9667
Input file: /data/retarget/locomotion/raw/AMASS_SMPLXG/HUMAN4D/Subject1_2_Karim/RGB_PlayingCards_S1S2_01_stageii.npz
Output file: ../robot/ik_based/pkl/010569.pkl
Processing time: 0.00 seconds
Total file time: 0.06 seconds
Status: FAILED
==================================================

=== ERROR LOG - 2025-10-15 10:33:44 ===
Input file: /data/retarget/locomotion/raw/AMASS_SMPLXG/HUMAN4D/Subject1_2_Karim/RGB_TalkingWhispering_S1S2_01_stageii.npz
Output file: ../robot/ik_based/pkl/010570.pkl
Robot type: unitree_g1
Processing time: 0.00 seconds
Error message: Unknown model type body, exiting!
Error type: ValueError
==================================================

=== FILE FAILURE - 2025-10-15 10:33:44 ===
File index: 010570
File number: 2481/9667
Input file: /data/retarget/locomotion/raw/AMASS_SMPLXG/HUMAN4D/Subject1_2_Karim/RGB_TalkingWhispering_S1S2_01_stageii.npz
Output file: ../robot/ik_based/pkl/010570.pkl
Processing time: 0.00 seconds
Total file time: 0.06 seconds
Status: FAILED
==================================================

=== ERROR LOG - 2025-10-15 10:33:44 ===
Input file: /data/retarget/locomotion/raw/AMASS_SMPLXG/HUMAN4D/Subject1_2_Karim/RGB_WatchingFootball_S1S2_02_stageii.npz
Output file: ../robot/ik_based/pkl/010571.pkl
Robot type: unitree_g1
Processing time: 0.00 seconds
Error message: Unknown model type body, exiting!
Error type: ValueError
==================================================

=== FILE FAILURE - 2025-10-15 10:33:44 ===
File index: 010571
File number: 2482/9667
Input file: /data/retarget/locomotion/raw/AMASS_SMPLXG/HUMAN4D/Subject1_2_Karim/RGB_WatchingFootball_S1S2_02_stageii.npz
Output file: ../robot/ik_based/pkl/010571.pkl
Processing time: 0.00 seconds
Total file time: 0.06 seconds
Status: FAILED
==================================================

=== ERROR LOG - 2025-10-15 10:33:44 ===
Input file: /data/retarget/locomotion/raw/AMASS_SMPLXG/HUMAN4D/Subject1_2_Karim/male_stagei.npz
Output file: ../robot/ik_based/pkl/010572.pkl
Robot type: unitree_g1
Processing time: 0.00 seconds
Error message: Unknown model type body, exiting!
Error type: ValueError
==================================================

=== FILE FAILURE - 2025-10-15 10:33:44 ===
File index: 010572
File number: 2483/9667
Input file: /data/retarget/locomotion/raw/AMASS_SMPLXG/HUMAN4D/Subject1_2_Karim/male_stagei.npz
Output file: ../robot/ik_based/pkl/010572.pkl
Processing time: 0.00 seconds
Total file time: 0.06 seconds
Status: FAILED
==================================================

=== ERROR LOG - 2025-10-15 10:33:44 ===
Input file: /data/retarget/locomotion/raw/AMASS_SMPLXG/HUMAN4D/Subject1_Karim/INF_InflightSafety_S1_01_stageii.npz
Output file: ../robot/ik_based/pkl/010573.pkl
Robot type: unitree_g1
Processing time: 0.00 seconds
Error message: Unknown model type body, exiting!
Error type: ValueError
==================================================

=== FILE FAILURE - 2025-10-15 10:33:45 ===
File index: 010573
File number: 2484/9667
Input file: /data/retarget/locomotion/raw/AMASS_SMPLXG/HUMAN4D/Subject1_Karim/INF_InflightSafety_S1_01_stageii.npz
Output file: ../robot/ik_based/pkl/010573.pkl
Processing time: 0.00 seconds
Total file time: 0.06 seconds
Status: FAILED
==================================================

=== ERROR LOG - 2025-10-15 10:33:45 ===
Input file: /data/retarget/locomotion/raw/AMASS_SMPLXG/HUMAN4D/Subject1_Karim/INF_JumpingJack_S1_01_stageii.npz
Output file: ../robot/ik_based/pkl/010574.pkl
Robot type: unitree_g1
Processing time: 0.00 seconds
Error message: Unknown model type body, exiting!
Error type: ValueError
==================================================

=== FILE FAILURE - 2025-10-15 10:33:45 ===
File index: 010574
File number: 2485/9667
Input file: /data/retarget/locomotion/raw/AMASS_SMPLXG/HUMAN4D/Subject1_Karim/INF_JumpingJack_S1_01_stageii.npz
Output file: ../robot/ik_based/pkl/010574.pkl
Processing time: 0.00 seconds
Total file time: 0.06 seconds
Status: FAILED
==================================================

=== ERROR LOG - 2025-10-15 10:33:45 ===
Input file: /data/retarget/locomotion/raw/AMASS_SMPLXG/HUMAN4D/Subject1_Karim/INF_LayingDown_S1_01_stageii.npz
Output file: ../robot/ik_based/pkl/010575.pkl
Robot type: unitree_g1
Processing time: 0.00 seconds
Error message: Unknown model type body, exiting!
Error type: ValueError
==================================================

=== FILE FAILURE - 2025-10-15 10:33:45 ===
File index: 010575
File number: 2486/9667
Input file: /data/retarget/locomotion/raw/AMASS_SMPLXG/HUMAN4D/Subject1_Karim/INF_LayingDown_S1_01_stageii.npz
Output file: ../robot/ik_based/pkl/010575.pkl
Processing time: 0.00 seconds
Total file time: 0.06 seconds
Status: FAILED
==================================================

=== ERROR LOG - 2025-10-15 10:33:45 ===
Input file: /data/retarget/locomotion/raw/AMASS_SMPLXG/HUMAN4D/Subject1_Karim/INF_PickingDroppingObj_S1_01_stageii.npz
Output file: ../robot/ik_based/pkl/010576.pkl
Robot type: unitree_g1
Processing time: 0.00 seconds
Error message: Unknown model type body, exiting!
Error type: ValueError
==================================================

=== FILE FAILURE - 2025-10-15 10:33:45 ===
File index: 010576
File number: 2487/9667
Input file: /data/retarget/locomotion/raw/AMASS_SMPLXG/HUMAN4D/Subject1_Karim/INF_PickingDroppingObj_S1_01_stageii.npz
Output file: ../robot/ik_based/pkl/010576.pkl
Processing time: 0.00 seconds
Total file time: 0.06 seconds
Status: FAILED
==================================================

=== ERROR LOG - 2025-10-15 10:33:45 ===
Input file: /data/retarget/locomotion/raw/AMASS_SMPLXG/HUMAN4D/Subject1_Karim/INF_PunchingKicking_S1_01_stageii.npz
Output file: ../robot/ik_based/pkl/010577.pkl
Robot type: unitree_g1
Processing time: 0.00 seconds
Error message: Unknown model type body, exiting!
Error type: ValueError
==================================================

=== FILE FAILURE - 2025-10-15 10:33:45 ===
File index: 010577
File number: 2488/9667
Input file: /data/retarget/locomotion/raw/AMASS_SMPLXG/HUMAN4D/Subject1_Karim/INF_PunchingKicking_S1_01_stageii.npz
Output file: ../robot/ik_based/pkl/010577.pkl
Processing time: 0.00 seconds
Total file time: 0.06 seconds
Status: FAILED
==================================================

=== ERROR LOG - 2025-10-15 10:33:45 ===
Input file: /data/retarget/locomotion/raw/AMASS_SMPLXG/HUMAN4D/Subject1_Karim/INF_Running_S1_01_stageii.npz
Output file: ../robot/ik_based/pkl/010578.pkl
Robot type: unitree_g1
Processing time: 0.00 seconds
Error message: Unknown model type body, exiting!
Error type: ValueError
==================================================

=== FILE FAILURE - 2025-10-15 10:33:45 ===
File index: 010578
File number: 2489/9667
Input file: /data/retarget/locomotion/raw/AMASS_SMPLXG/HUMAN4D/Subject1_Karim/INF_Running_S1_01_stageii.npz
Output file: ../robot/ik_based/pkl/010578.pkl
Processing time: 0.00 seconds
Total file time: 0.06 seconds
Status: FAILED
==================================================

=== ERROR LOG - 2025-10-15 10:33:45 ===
Input file: /data/retarget/locomotion/raw/AMASS_SMPLXG/HUMAN4D/Subject1_Karim/INF_SittingDown_S1_01_stageii.npz
Output file: ../robot/ik_based/pkl/010579.pkl
Robot type: unitree_g1
Processing time: 0.00 seconds
Error message: Unknown model type body, exiting!
Error type: ValueError
==================================================

=== FILE FAILURE - 2025-10-15 10:33:45 ===
File index: 010579
File number: 2490/9667
Input file: /data/retarget/locomotion/raw/AMASS_SMPLXG/HUMAN4D/Subject1_Karim/INF_SittingDown_S1_01_stageii.npz
Output file: ../robot/ik_based/pkl/010579.pkl
Processing time: 0.00 seconds
Total file time: 0.06 seconds
Status: FAILED
==================================================

=== ERROR LOG - 2025-10-15 10:33:45 ===
Input file: /data/retarget/locomotion/raw/AMASS_SMPLXG/HUMAN4D/Subject1_Karim/INF_SittingStanding_S1_01_stageii.npz
Output file: ../robot/ik_based/pkl/010580.pkl
Robot type: unitree_g1
Processing time: 0.00 seconds
Error message: Unknown model type body, exiting!
Error type: ValueError
==================================================

=== FILE FAILURE - 2025-10-15 10:33:45 ===
File index: 010580
File number: 2491/9667
Input file: /data/retarget/locomotion/raw/AMASS_SMPLXG/HUMAN4D/Subject1_Karim/INF_SittingStanding_S1_01_stageii.npz
Output file: ../robot/ik_based/pkl/010580.pkl
Processing time: 0.00 seconds
Total file time: 0.06 seconds
Status: FAILED
==================================================

=== ERROR LOG - 2025-10-15 10:33:45 ===
Input file: /data/retarget/locomotion/raw/AMASS_SMPLXG/HUMAN4D/Subject1_Karim/INF_StretchingTalking_S1_01_stageii.npz
Output file: ../robot/ik_based/pkl/010581.pkl
Robot type: unitree_g1
Processing time: 0.00 seconds
Error message: Unknown model type body, exiting!
Error type: ValueError
==================================================

=== FILE FAILURE - 2025-10-15 10:33:45 ===
File index: 010581
File number: 2492/9667
Input file: /data/retarget/locomotion/raw/AMASS_SMPLXG/HUMAN4D/Subject1_Karim/INF_StretchingTalking_S1_01_stageii.npz
Output file: ../robot/ik_based/pkl/010581.pkl
Processing time: 0.00 seconds
Total file time: 0.06 seconds
Status: FAILED
==================================================

=== ERROR LOG - 2025-10-15 10:33:45 ===
Input file: /data/retarget/locomotion/raw/AMASS_SMPLXG/HUMAN4D/Subject1_Karim/INF_TalkingWalking_S1_01_stageii.npz
Output file: ../robot/ik_based/pkl/010582.pkl
Robot type: unitree_g1
Processing time: 0.00 seconds
Error message: Unknown model type body, exiting!
Error type: ValueError
==================================================

=== FILE FAILURE - 2025-10-15 10:33:45 ===
File index: 010582
File number: 2493/9667
Input file: /data/retarget/locomotion/raw/AMASS_SMPLXG/HUMAN4D/Subject1_Karim/INF_TalkingWalking_S1_01_stageii.npz
Output file: ../robot/ik_based/pkl/010582.pkl
Processing time: 0.00 seconds
Total file time: 0.06 seconds
Status: FAILED
==================================================

=== ERROR LOG - 2025-10-15 10:33:45 ===
Input file: /data/retarget/locomotion/raw/AMASS_SMPLXG/HUMAN4D/Subject1_Karim/INF_Talking_S1_01_stageii.npz
Output file: ../robot/ik_based/pkl/010583.pkl
Robot type: unitree_g1
Processing time: 0.00 seconds
Error message: Unknown model type body, exiting!
Error type: ValueError
==================================================

=== FILE FAILURE - 2025-10-15 10:33:45 ===
File index: 010583
File number: 2494/9667
Input file: /data/retarget/locomotion/raw/AMASS_SMPLXG/HUMAN4D/Subject1_Karim/INF_Talking_S1_01_stageii.npz
Output file: ../robot/ik_based/pkl/010583.pkl
Processing time: 0.00 seconds
Total file time: 0.06 seconds
Status: FAILED
==================================================

=== ERROR LOG - 2025-10-15 10:33:45 ===
Input file: /data/retarget/locomotion/raw/AMASS_SMPLXG/HUMAN4D/Subject1_Karim/INF_WatchingScaryMovie_S1_01_stageii.npz
Output file: ../robot/ik_based/pkl/010584.pkl
Robot type: unitree_g1
Processing time: 0.00 seconds
Error message: Unknown model type body, exiting!
Error type: ValueError
==================================================

=== FILE FAILURE - 2025-10-15 10:33:45 ===
File index: 010584
File number: 2495/9667
Input file: /data/retarget/locomotion/raw/AMASS_SMPLXG/HUMAN4D/Subject1_Karim/INF_WatchingScaryMovie_S1_01_stageii.npz
Output file: ../robot/ik_based/pkl/010584.pkl
Processing time: 0.00 seconds
Total file time: 0.06 seconds
Status: FAILED
==================================================

=== ERROR LOG - 2025-10-15 10:33:45 ===
Input file: /data/retarget/locomotion/raw/AMASS_SMPLXG/HUMAN4D/Subject1_Karim/RGB_Bending_S1_01_stageii.npz
Output file: ../robot/ik_based/pkl/010585.pkl
Robot type: unitree_g1
Processing time: 0.00 seconds
Error message: Unknown model type body, exiting!
Error type: ValueError
==================================================

=== FILE FAILURE - 2025-10-15 10:33:45 ===
File index: 010585
File number: 2496/9667
Input file: /data/retarget/locomotion/raw/AMASS_SMPLXG/HUMAN4D/Subject1_Karim/RGB_Bending_S1_01_stageii.npz
Output file: ../robot/ik_based/pkl/010585.pkl
Processing time: 0.00 seconds
Total file time: 0.06 seconds
Status: FAILED
==================================================

=== ERROR LOG - 2025-10-15 10:33:45 ===
Input file: /data/retarget/locomotion/raw/AMASS_SMPLXG/HUMAN4D/Subject1_Karim/RGB_InflightSafety_S1_02_stageii.npz
Output file: ../robot/ik_based/pkl/010586.pkl
Robot type: unitree_g1
Processing time: 0.00 seconds
Error message: Unknown model type body, exiting!
Error type: ValueError
==================================================

=== FILE FAILURE - 2025-10-15 10:33:45 ===
File index: 010586
File number: 2497/9667
Input file: /data/retarget/locomotion/raw/AMASS_SMPLXG/HUMAN4D/Subject1_Karim/RGB_InflightSafety_S1_02_stageii.npz
Output file: ../robot/ik_based/pkl/010586.pkl
Processing time: 0.00 seconds
Total file time: 0.06 seconds
Status: FAILED
==================================================

=== ERROR LOG - 2025-10-15 10:33:45 ===
Input file: /data/retarget/locomotion/raw/AMASS_SMPLXG/HUMAN4D/Subject1_Karim/RGB_LayingDown_S1_01_stageii.npz
Output file: ../robot/ik_based/pkl/010587.pkl
Robot type: unitree_g1
Processing time: 0.00 seconds
Error message: Unknown model type body, exiting!
Error type: ValueError
==================================================

=== FILE FAILURE - 2025-10-15 10:33:45 ===
File index: 010587
File number: 2498/9667
Input file: /data/retarget/locomotion/raw/AMASS_SMPLXG/HUMAN4D/Subject1_Karim/RGB_LayingDown_S1_01_stageii.npz
Output file: ../robot/ik_based/pkl/010587.pkl
Processing time: 0.00 seconds
Total file time: 0.06 seconds
Status: FAILED
==================================================

=== ERROR LOG - 2025-10-15 10:33:45 ===
Input file: /data/retarget/locomotion/raw/AMASS_SMPLXG/HUMAN4D/Subject1_Karim/RGB_PickingDroppingObj_S1_01_stageii.npz
Output file: ../robot/ik_based/pkl/010588.pkl
Robot type: unitree_g1
Processing time: 0.00 seconds
Error message: Unknown model type body, exiting!
Error type: ValueError
==================================================

=== FILE FAILURE - 2025-10-15 10:33:45 ===
File index: 010588
File number: 2499/9667
Input file: /data/retarget/locomotion/raw/AMASS_SMPLXG/HUMAN4D/Subject1_Karim/RGB_PickingDroppingObj_S1_01_stageii.npz
Output file: ../robot/ik_based/pkl/010588.pkl
Processing time: 0.00 seconds
Total file time: 0.06 seconds
Status: FAILED
==================================================

=== ERROR LOG - 2025-10-15 10:33:45 ===
Input file: /data/retarget/locomotion/raw/AMASS_SMPLXG/HUMAN4D/Subject1_Karim/RGB_PunshingKicking_S1_02_stageii.npz
Output file: ../robot/ik_based/pkl/010589.pkl
Robot type: unitree_g1
Processing time: 0.00 seconds
Error message: Unknown model type body, exiting!
Error type: ValueError
==================================================

=== FILE FAILURE - 2025-10-15 10:33:46 ===
File index: 010589
File number: 2500/9667
Input file: /data/retarget/locomotion/raw/AMASS_SMPLXG/HUMAN4D/Subject1_Karim/RGB_PunshingKicking_S1_02_stageii.npz
Output file: ../robot/ik_based/pkl/010589.pkl
Processing time: 0.00 seconds
Total file time: 0.06 seconds
Status: FAILED
==================================================

=== ERROR LOG - 2025-10-15 10:33:46 ===
Input file: /data/retarget/locomotion/raw/AMASS_SMPLXG/HUMAN4D/Subject1_Karim/RGB_Running_S1_02_stageii.npz
Output file: ../robot/ik_based/pkl/010590.pkl
Robot type: unitree_g1
Processing time: 0.00 seconds
Error message: Unknown model type body, exiting!
Error type: ValueError
==================================================

=== FILE FAILURE - 2025-10-15 10:33:46 ===
File index: 010590
File number: 2501/9667
Input file: /data/retarget/locomotion/raw/AMASS_SMPLXG/HUMAN4D/Subject1_Karim/RGB_Running_S1_02_stageii.npz
Output file: ../robot/ik_based/pkl/010590.pkl
Processing time: 0.00 seconds
Total file time: 0.06 seconds
Status: FAILED
==================================================

=== ERROR LOG - 2025-10-15 10:33:46 ===
Input file: /data/retarget/locomotion/raw/AMASS_SMPLXG/HUMAN4D/Subject1_Karim/RGB_SitingFloor_S1_02_stageii.npz
Output file: ../robot/ik_based/pkl/010591.pkl
Robot type: unitree_g1
Processing time: 0.00 seconds
Error message: Unknown model type body, exiting!
Error type: ValueError
==================================================

=== FILE FAILURE - 2025-10-15 10:33:46 ===
File index: 010591
File number: 2502/9667
Input file: /data/retarget/locomotion/raw/AMASS_SMPLXG/HUMAN4D/Subject1_Karim/RGB_SitingFloor_S1_02_stageii.npz
Output file: ../robot/ik_based/pkl/010591.pkl
Processing time: 0.00 seconds
Total file time: 0.06 seconds
Status: FAILED
==================================================

=== ERROR LOG - 2025-10-15 10:33:46 ===
Input file: /data/retarget/locomotion/raw/AMASS_SMPLXG/HUMAN4D/Subject1_Karim/RGB_SitingStanding_S1_01_stageii.npz
Output file: ../robot/ik_based/pkl/010592.pkl
Robot type: unitree_g1
Processing time: 0.00 seconds
Error message: Unknown model type body, exiting!
Error type: ValueError
==================================================

=== FILE FAILURE - 2025-10-15 10:33:46 ===
File index: 010592
File number: 2503/9667
Input file: /data/retarget/locomotion/raw/AMASS_SMPLXG/HUMAN4D/Subject1_Karim/RGB_SitingStanding_S1_01_stageii.npz
Output file: ../robot/ik_based/pkl/010592.pkl
Processing time: 0.00 seconds
Total file time: 0.06 seconds
Status: FAILED
==================================================

=== ERROR LOG - 2025-10-15 10:33:46 ===
Input file: /data/retarget/locomotion/raw/AMASS_SMPLXG/HUMAN4D/Subject1_Karim/RGB_StrechingTalking_S1_01_stageii.npz
Output file: ../robot/ik_based/pkl/010593.pkl
Robot type: unitree_g1
Processing time: 0.00 seconds
Error message: Unknown model type body, exiting!
Error type: ValueError
==================================================

=== FILE FAILURE - 2025-10-15 10:33:46 ===
File index: 010593
File number: 2504/9667
Input file: /data/retarget/locomotion/raw/AMASS_SMPLXG/HUMAN4D/Subject1_Karim/RGB_StrechingTalking_S1_01_stageii.npz
Output file: ../robot/ik_based/pkl/010593.pkl
Processing time: 0.00 seconds
Total file time: 0.06 seconds
Status: FAILED
==================================================

=== ERROR LOG - 2025-10-15 10:33:46 ===
Input file: /data/retarget/locomotion/raw/AMASS_SMPLXG/HUMAN4D/Subject1_Karim/RGB_TalkingWalking_S1_01_stageii.npz
Output file: ../robot/ik_based/pkl/010594.pkl
Robot type: unitree_g1
Processing time: 0.00 seconds
Error message: Unknown model type body, exiting!
Error type: ValueError
==================================================

=== FILE FAILURE - 2025-10-15 10:33:46 ===
File index: 010594
File number: 2505/9667
Input file: /data/retarget/locomotion/raw/AMASS_SMPLXG/HUMAN4D/Subject1_Karim/RGB_TalkingWalking_S1_01_stageii.npz
Output file: ../robot/ik_based/pkl/010594.pkl
Processing time: 0.00 seconds
Total file time: 0.06 seconds
Status: FAILED
==================================================

=== ERROR LOG - 2025-10-15 10:33:46 ===
Input file: /data/retarget/locomotion/raw/AMASS_SMPLXG/HUMAN4D/Subject1_Karim/RGB_Talking_S1_01_stageii.npz
Output file: ../robot/ik_based/pkl/010595.pkl
Robot type: unitree_g1
Processing time: 0.00 seconds
Error message: Unknown model type body, exiting!
Error type: ValueError
==================================================

=== FILE FAILURE - 2025-10-15 10:33:46 ===
File index: 010595
File number: 2506/9667
Input file: /data/retarget/locomotion/raw/AMASS_SMPLXG/HUMAN4D/Subject1_Karim/RGB_Talking_S1_01_stageii.npz
Output file: ../robot/ik_based/pkl/010595.pkl
Processing time: 0.00 seconds
Total file time: 0.06 seconds
Status: FAILED
==================================================

=== ERROR LOG - 2025-10-15 10:33:46 ===
Input file: /data/retarget/locomotion/raw/AMASS_SMPLXG/HUMAN4D/Subject1_Karim/RGB_WatchingScaryMovie_S1_01_stageii.npz
Output file: ../robot/ik_based/pkl/010596.pkl
Robot type: unitree_g1
Processing time: 0.00 seconds
Error message: Unknown model type body, exiting!
Error type: ValueError
==================================================

=== FILE FAILURE - 2025-10-15 10:33:46 ===
File index: 010596
File number: 2507/9667
Input file: /data/retarget/locomotion/raw/AMASS_SMPLXG/HUMAN4D/Subject1_Karim/RGB_WatchingScaryMovie_S1_01_stageii.npz
Output file: ../robot/ik_based/pkl/010596.pkl
Processing time: 0.00 seconds
Total file time: 0.06 seconds
Status: FAILED
==================================================

=== ERROR LOG - 2025-10-15 10:33:46 ===
Input file: /data/retarget/locomotion/raw/AMASS_SMPLXG/HUMAN4D/Subject1_Karim/male_stagei.npz
Output file: ../robot/ik_based/pkl/010597.pkl
Robot type: unitree_g1
Processing time: 0.00 seconds
Error message: Unknown model type body, exiting!
Error type: ValueError
==================================================

=== FILE FAILURE - 2025-10-15 10:33:46 ===
File index: 010597
File number: 2508/9667
Input file: /data/retarget/locomotion/raw/AMASS_SMPLXG/HUMAN4D/Subject1_Karim/male_stagei.npz
Output file: ../robot/ik_based/pkl/010597.pkl
Processing time: 0.00 seconds
Total file time: 0.06 seconds
Status: FAILED
==================================================

=== ERROR LOG - 2025-10-15 10:33:46 ===
Input file: /data/retarget/locomotion/raw/AMASS_SMPLXG/HUMAN4D/Subject2_Aude/INF_Basketball_S2_01_stageii.npz
Output file: ../robot/ik_based/pkl/010598.pkl
Robot type: unitree_g1
Processing time: 0.00 seconds
Error message: Unknown model type body, exiting!
Error type: ValueError
==================================================

=== FILE FAILURE - 2025-10-15 10:33:46 ===
File index: 010598
File number: 2509/9667
Input file: /data/retarget/locomotion/raw/AMASS_SMPLXG/HUMAN4D/Subject2_Aude/INF_Basketball_S2_01_stageii.npz
Output file: ../robot/ik_based/pkl/010598.pkl
Processing time: 0.00 seconds
Total file time: 0.06 seconds
Status: FAILED
==================================================

=== ERROR LOG - 2025-10-15 10:33:46 ===
Input file: /data/retarget/locomotion/raw/AMASS_SMPLXG/HUMAN4D/Subject2_Aude/INF_Bending_S2_01_stageii.npz
Output file: ../robot/ik_based/pkl/010599.pkl
Robot type: unitree_g1
Processing time: 0.00 seconds
Error message: Unknown model type body, exiting!
Error type: ValueError
==================================================

=== FILE FAILURE - 2025-10-15 10:33:46 ===
File index: 010599
File number: 2510/9667
Input file: /data/retarget/locomotion/raw/AMASS_SMPLXG/HUMAN4D/Subject2_Aude/INF_Bending_S2_01_stageii.npz
Output file: ../robot/ik_based/pkl/010599.pkl
Processing time: 0.00 seconds
Total file time: 0.06 seconds
Status: FAILED
==================================================

=== ERROR LOG - 2025-10-15 10:33:46 ===
Input file: /data/retarget/locomotion/raw/AMASS_SMPLXG/HUMAN4D/Subject2_Aude/INF_InflightSafety_S2_01_stageii.npz
Output file: ../robot/ik_based/pkl/010600.pkl
Robot type: unitree_g1
Processing time: 0.00 seconds
Error message: Unknown model type body, exiting!
Error type: ValueError
==================================================

=== FILE FAILURE - 2025-10-15 10:33:46 ===
File index: 010600
File number: 2511/9667
Input file: /data/retarget/locomotion/raw/AMASS_SMPLXG/HUMAN4D/Subject2_Aude/INF_InflightSafety_S2_01_stageii.npz
Output file: ../robot/ik_based/pkl/010600.pkl
Processing time: 0.00 seconds
Total file time: 0.06 seconds
Status: FAILED
==================================================

=== ERROR LOG - 2025-10-15 10:33:46 ===
Input file: /data/retarget/locomotion/raw/AMASS_SMPLXG/HUMAN4D/Subject2_Aude/INF_JumpingJack_S2_01_stageii.npz
Output file: ../robot/ik_based/pkl/010601.pkl
Robot type: unitree_g1
Processing time: 0.00 seconds
Error message: Unknown model type body, exiting!
Error type: ValueError
==================================================

=== FILE FAILURE - 2025-10-15 10:33:46 ===
File index: 010601
File number: 2512/9667
Input file: /data/retarget/locomotion/raw/AMASS_SMPLXG/HUMAN4D/Subject2_Aude/INF_JumpingJack_S2_01_stageii.npz
Output file: ../robot/ik_based/pkl/010601.pkl
Processing time: 0.00 seconds
Total file time: 0.06 seconds
Status: FAILED
==================================================

=== ERROR LOG - 2025-10-15 10:33:46 ===
Input file: /data/retarget/locomotion/raw/AMASS_SMPLXG/HUMAN4D/Subject2_Aude/INF_LayingDown_S2_02_stageii.npz
Output file: ../robot/ik_based/pkl/010602.pkl
Robot type: unitree_g1
Processing time: 0.00 seconds
Error message: Unknown model type body, exiting!
Error type: ValueError
==================================================

=== FILE FAILURE - 2025-10-15 10:33:46 ===
File index: 010602
File number: 2513/9667
Input file: /data/retarget/locomotion/raw/AMASS_SMPLXG/HUMAN4D/Subject2_Aude/INF_LayingDown_S2_02_stageii.npz
Output file: ../robot/ik_based/pkl/010602.pkl
Processing time: 0.00 seconds
Total file time: 0.06 seconds
Status: FAILED
==================================================

=== ERROR LOG - 2025-10-15 10:33:46 ===
Input file: /data/retarget/locomotion/raw/AMASS_SMPLXG/HUMAN4D/Subject2_Aude/INF_PickingDroppingObj_S2_01_stageii.npz
Output file: ../robot/ik_based/pkl/010603.pkl
Robot type: unitree_g1
Processing time: 0.00 seconds
Error message: Unknown model type body, exiting!
Error type: ValueError
==================================================

=== FILE FAILURE - 2025-10-15 10:33:46 ===
File index: 010603
File number: 2514/9667
Input file: /data/retarget/locomotion/raw/AMASS_SMPLXG/HUMAN4D/Subject2_Aude/INF_PickingDroppingObj_S2_01_stageii.npz
Output file: ../robot/ik_based/pkl/010603.pkl
Processing time: 0.00 seconds
Total file time: 0.06 seconds
Status: FAILED
==================================================

=== ERROR LOG - 2025-10-15 10:33:46 ===
Input file: /data/retarget/locomotion/raw/AMASS_SMPLXG/HUMAN4D/Subject2_Aude/INF_PunchingKicking_S2_01_stageii.npz
Output file: ../robot/ik_based/pkl/010604.pkl
Robot type: unitree_g1
Processing time: 0.00 seconds
Error message: Unknown model type body, exiting!
Error type: ValueError
==================================================

=== FILE FAILURE - 2025-10-15 10:33:47 ===
File index: 010604
File number: 2515/9667
Input file: /data/retarget/locomotion/raw/AMASS_SMPLXG/HUMAN4D/Subject2_Aude/INF_PunchingKicking_S2_01_stageii.npz
Output file: ../robot/ik_based/pkl/010604.pkl
Processing time: 0.00 seconds
Total file time: 0.06 seconds
Status: FAILED
==================================================

=== ERROR LOG - 2025-10-15 10:33:47 ===
Input file: /data/retarget/locomotion/raw/AMASS_SMPLXG/HUMAN4D/Subject2_Aude/INF_Running_S2_01_stageii.npz
Output file: ../robot/ik_based/pkl/010605.pkl
Robot type: unitree_g1
Processing time: 0.00 seconds
Error message: Unknown model type body, exiting!
Error type: ValueError
==================================================

=== FILE FAILURE - 2025-10-15 10:33:47 ===
File index: 010605
File number: 2516/9667
Input file: /data/retarget/locomotion/raw/AMASS_SMPLXG/HUMAN4D/Subject2_Aude/INF_Running_S2_01_stageii.npz
Output file: ../robot/ik_based/pkl/010605.pkl
Processing time: 0.00 seconds
Total file time: 0.06 seconds
Status: FAILED
==================================================

=== ERROR LOG - 2025-10-15 10:33:47 ===
Input file: /data/retarget/locomotion/raw/AMASS_SMPLXG/HUMAN4D/Subject2_Aude/INF_SittingFloor_S2_01_stageii.npz
Output file: ../robot/ik_based/pkl/010606.pkl
Robot type: unitree_g1
Processing time: 0.00 seconds
Error message: Unknown model type body, exiting!
Error type: ValueError
==================================================

=== FILE FAILURE - 2025-10-15 10:33:47 ===
File index: 010606
File number: 2517/9667
Input file: /data/retarget/locomotion/raw/AMASS_SMPLXG/HUMAN4D/Subject2_Aude/INF_SittingFloor_S2_01_stageii.npz
Output file: ../robot/ik_based/pkl/010606.pkl
Processing time: 0.00 seconds
Total file time: 0.07 seconds
Status: FAILED
==================================================

=== ERROR LOG - 2025-10-15 10:33:47 ===
Input file: /data/retarget/locomotion/raw/AMASS_SMPLXG/HUMAN4D/Subject2_Aude/INF_SittingStanding_S2_01_stageii.npz
Output file: ../robot/ik_based/pkl/010607.pkl
Robot type: unitree_g1
Processing time: 0.00 seconds
Error message: Unknown model type body, exiting!
Error type: ValueError
==================================================

=== FILE FAILURE - 2025-10-15 10:33:47 ===
File index: 010607
File number: 2518/9667
Input file: /data/retarget/locomotion/raw/AMASS_SMPLXG/HUMAN4D/Subject2_Aude/INF_SittingStanding_S2_01_stageii.npz
Output file: ../robot/ik_based/pkl/010607.pkl
Processing time: 0.00 seconds
Total file time: 0.07 seconds
Status: FAILED
==================================================

=== ERROR LOG - 2025-10-15 10:33:47 ===
Input file: /data/retarget/locomotion/raw/AMASS_SMPLXG/HUMAN4D/Subject2_Aude/INF_StretchingTalking_S2_01_stageii.npz
Output file: ../robot/ik_based/pkl/010608.pkl
Robot type: unitree_g1
Processing time: 0.00 seconds
Error message: Unknown model type body, exiting!
Error type: ValueError
==================================================

=== FILE FAILURE - 2025-10-15 10:33:47 ===
File index: 010608
File number: 2519/9667
Input file: /data/retarget/locomotion/raw/AMASS_SMPLXG/HUMAN4D/Subject2_Aude/INF_StretchingTalking_S2_01_stageii.npz
Output file: ../robot/ik_based/pkl/010608.pkl
Processing time: 0.00 seconds
Total file time: 0.07 seconds
Status: FAILED
==================================================

=== ERROR LOG - 2025-10-15 10:33:47 ===
Input file: /data/retarget/locomotion/raw/AMASS_SMPLXG/HUMAN4D/Subject2_Aude/INF_TalkingWalking_S2_01_stageii.npz
Output file: ../robot/ik_based/pkl/010609.pkl
Robot type: unitree_g1
Processing time: 0.00 seconds
Error message: Unknown model type body, exiting!
Error type: ValueError
==================================================

=== FILE FAILURE - 2025-10-15 10:33:47 ===
File index: 010609
File number: 2520/9667
Input file: /data/retarget/locomotion/raw/AMASS_SMPLXG/HUMAN4D/Subject2_Aude/INF_TalkingWalking_S2_01_stageii.npz
Output file: ../robot/ik_based/pkl/010609.pkl
Processing time: 0.00 seconds
Total file time: 0.07 seconds
Status: FAILED
==================================================

=== ERROR LOG - 2025-10-15 10:33:47 ===
Input file: /data/retarget/locomotion/raw/AMASS_SMPLXG/HUMAN4D/Subject2_Aude/INF_Talking_S2_01_stageii.npz
Output file: ../robot/ik_based/pkl/010610.pkl
Robot type: unitree_g1
Processing time: 0.00 seconds
Error message: Unknown model type body, exiting!
Error type: ValueError
==================================================

=== FILE FAILURE - 2025-10-15 10:33:47 ===
File index: 010610
File number: 2521/9667
Input file: /data/retarget/locomotion/raw/AMASS_SMPLXG/HUMAN4D/Subject2_Aude/INF_Talking_S2_01_stageii.npz
Output file: ../robot/ik_based/pkl/010610.pkl
Processing time: 0.00 seconds
Total file time: 0.06 seconds
Status: FAILED
==================================================

=== ERROR LOG - 2025-10-15 10:33:47 ===
Input file: /data/retarget/locomotion/raw/AMASS_SMPLXG/HUMAN4D/Subject2_Aude/INF_WatchingScaryMovie_S2_01_stageii.npz
Output file: ../robot/ik_based/pkl/010611.pkl
Robot type: unitree_g1
Processing time: 0.00 seconds
Error message: Unknown model type body, exiting!
Error type: ValueError
==================================================

=== FILE FAILURE - 2025-10-15 10:33:47 ===
File index: 010611
File number: 2522/9667
Input file: /data/retarget/locomotion/raw/AMASS_SMPLXG/HUMAN4D/Subject2_Aude/INF_WatchingScaryMovie_S2_01_stageii.npz
Output file: ../robot/ik_based/pkl/010611.pkl
Processing time: 0.00 seconds
Total file time: 0.06 seconds
Status: FAILED
==================================================

=== ERROR LOG - 2025-10-15 10:33:47 ===
Input file: /data/retarget/locomotion/raw/AMASS_SMPLXG/HUMAN4D/Subject2_Aude/RGB_Basketball_S2_01_stageii.npz
Output file: ../robot/ik_based/pkl/010612.pkl
Robot type: unitree_g1
Processing time: 0.00 seconds
Error message: Unknown model type body, exiting!
Error type: ValueError
==================================================

=== FILE FAILURE - 2025-10-15 10:33:47 ===
File index: 010612
File number: 2523/9667
Input file: /data/retarget/locomotion/raw/AMASS_SMPLXG/HUMAN4D/Subject2_Aude/RGB_Basketball_S2_01_stageii.npz
Output file: ../robot/ik_based/pkl/010612.pkl
Processing time: 0.00 seconds
Total file time: 0.06 seconds
Status: FAILED
==================================================

=== ERROR LOG - 2025-10-15 10:33:47 ===
Input file: /data/retarget/locomotion/raw/AMASS_SMPLXG/HUMAN4D/Subject2_Aude/RGB_Bending_S2_01_stageii.npz
Output file: ../robot/ik_based/pkl/010613.pkl
Robot type: unitree_g1
Processing time: 0.00 seconds
Error message: Unknown model type body, exiting!
Error type: ValueError
==================================================

=== FILE FAILURE - 2025-10-15 10:33:47 ===
File index: 010613
File number: 2524/9667
Input file: /data/retarget/locomotion/raw/AMASS_SMPLXG/HUMAN4D/Subject2_Aude/RGB_Bending_S2_01_stageii.npz
Output file: ../robot/ik_based/pkl/010613.pkl
Processing time: 0.00 seconds
Total file time: 0.06 seconds
Status: FAILED
==================================================

=== ERROR LOG - 2025-10-15 10:33:47 ===
Input file: /data/retarget/locomotion/raw/AMASS_SMPLXG/HUMAN4D/Subject2_Aude/RGB_InflightSafety_S2_03_stageii.npz
Output file: ../robot/ik_based/pkl/010614.pkl
Robot type: unitree_g1
Processing time: 0.00 seconds
Error message: Unknown model type body, exiting!
Error type: ValueError
==================================================

=== FILE FAILURE - 2025-10-15 10:33:47 ===
File index: 010614
File number: 2525/9667
Input file: /data/retarget/locomotion/raw/AMASS_SMPLXG/HUMAN4D/Subject2_Aude/RGB_InflightSafety_S2_03_stageii.npz
Output file: ../robot/ik_based/pkl/010614.pkl
Processing time: 0.00 seconds
Total file time: 0.06 seconds
Status: FAILED
==================================================

=== ERROR LOG - 2025-10-15 10:33:47 ===
Input file: /data/retarget/locomotion/raw/AMASS_SMPLXG/HUMAN4D/Subject2_Aude/RGB_JumpingJack_S2_01_stageii.npz
Output file: ../robot/ik_based/pkl/010615.pkl
Robot type: unitree_g1
Processing time: 0.00 seconds
Error message: Unknown model type body, exiting!
Error type: ValueError
==================================================

=== FILE FAILURE - 2025-10-15 10:33:47 ===
File index: 010615
File number: 2526/9667
Input file: /data/retarget/locomotion/raw/AMASS_SMPLXG/HUMAN4D/Subject2_Aude/RGB_JumpingJack_S2_01_stageii.npz
Output file: ../robot/ik_based/pkl/010615.pkl
Processing time: 0.00 seconds
Total file time: 0.06 seconds
Status: FAILED
==================================================

=== ERROR LOG - 2025-10-15 10:33:47 ===
Input file: /data/retarget/locomotion/raw/AMASS_SMPLXG/HUMAN4D/Subject2_Aude/RGB_LayingDown_S2_01_stageii.npz
Output file: ../robot/ik_based/pkl/010616.pkl
Robot type: unitree_g1
Processing time: 0.00 seconds
Error message: Unknown model type body, exiting!
Error type: ValueError
==================================================

=== FILE FAILURE - 2025-10-15 10:33:47 ===
File index: 010616
File number: 2527/9667
Input file: /data/retarget/locomotion/raw/AMASS_SMPLXG/HUMAN4D/Subject2_Aude/RGB_LayingDown_S2_01_stageii.npz
Output file: ../robot/ik_based/pkl/010616.pkl
Processing time: 0.00 seconds
Total file time: 0.06 seconds
Status: FAILED
==================================================

=== ERROR LOG - 2025-10-15 10:33:47 ===
Input file: /data/retarget/locomotion/raw/AMASS_SMPLXG/HUMAN4D/Subject2_Aude/RGB_PickingDroppingObj_S2_01_stageii.npz
Output file: ../robot/ik_based/pkl/010617.pkl
Robot type: unitree_g1
Processing time: 0.00 seconds
Error message: Unknown model type body, exiting!
Error type: ValueError
==================================================

=== FILE FAILURE - 2025-10-15 10:33:47 ===
File index: 010617
File number: 2528/9667
Input file: /data/retarget/locomotion/raw/AMASS_SMPLXG/HUMAN4D/Subject2_Aude/RGB_PickingDroppingObj_S2_01_stageii.npz
Output file: ../robot/ik_based/pkl/010617.pkl
Processing time: 0.00 seconds
Total file time: 0.06 seconds
Status: FAILED
==================================================

=== ERROR LOG - 2025-10-15 10:33:47 ===
Input file: /data/retarget/locomotion/raw/AMASS_SMPLXG/HUMAN4D/Subject2_Aude/RGB_PunchingKicking_S2_01_stageii.npz
Output file: ../robot/ik_based/pkl/010618.pkl
Robot type: unitree_g1
Processing time: 0.00 seconds
Error message: Unknown model type body, exiting!
Error type: ValueError
==================================================

=== FILE FAILURE - 2025-10-15 10:33:47 ===
File index: 010618
File number: 2529/9667
Input file: /data/retarget/locomotion/raw/AMASS_SMPLXG/HUMAN4D/Subject2_Aude/RGB_PunchingKicking_S2_01_stageii.npz
Output file: ../robot/ik_based/pkl/010618.pkl
Processing time: 0.00 seconds
Total file time: 0.07 seconds
Status: FAILED
==================================================

=== ERROR LOG - 2025-10-15 10:33:47 ===
Input file: /data/retarget/locomotion/raw/AMASS_SMPLXG/HUMAN4D/Subject2_Aude/RGB_Running_S2_02_stageii.npz
Output file: ../robot/ik_based/pkl/010619.pkl
Robot type: unitree_g1
Processing time: 0.00 seconds
Error message: Unknown model type body, exiting!
Error type: ValueError
==================================================

=== FILE FAILURE - 2025-10-15 10:33:47 ===
File index: 010619
File number: 2530/9667
Input file: /data/retarget/locomotion/raw/AMASS_SMPLXG/HUMAN4D/Subject2_Aude/RGB_Running_S2_02_stageii.npz
Output file: ../robot/ik_based/pkl/010619.pkl
Processing time: 0.00 seconds
Total file time: 0.06 seconds
Status: FAILED
==================================================

=== ERROR LOG - 2025-10-15 10:33:47 ===
Input file: /data/retarget/locomotion/raw/AMASS_SMPLXG/HUMAN4D/Subject2_Aude/RGB_SittingFloor_S2_01_stageii.npz
Output file: ../robot/ik_based/pkl/010620.pkl
Robot type: unitree_g1
Processing time: 0.00 seconds
Error message: Unknown model type body, exiting!
Error type: ValueError
==================================================

=== FILE FAILURE - 2025-10-15 10:33:48 ===
File index: 010620
File number: 2531/9667
Input file: /data/retarget/locomotion/raw/AMASS_SMPLXG/HUMAN4D/Subject2_Aude/RGB_SittingFloor_S2_01_stageii.npz
Output file: ../robot/ik_based/pkl/010620.pkl
Processing time: 0.00 seconds
Total file time: 0.06 seconds
Status: FAILED
==================================================

=== ERROR LOG - 2025-10-15 10:33:48 ===
Input file: /data/retarget/locomotion/raw/AMASS_SMPLXG/HUMAN4D/Subject2_Aude/RGB_SittingStanding_S2_01_stageii.npz
Output file: ../robot/ik_based/pkl/010621.pkl
Robot type: unitree_g1
Processing time: 0.00 seconds
Error message: Unknown model type body, exiting!
Error type: ValueError
==================================================

=== FILE FAILURE - 2025-10-15 10:33:48 ===
File index: 010621
File number: 2532/9667
Input file: /data/retarget/locomotion/raw/AMASS_SMPLXG/HUMAN4D/Subject2_Aude/RGB_SittingStanding_S2_01_stageii.npz
Output file: ../robot/ik_based/pkl/010621.pkl
Processing time: 0.00 seconds
Total file time: 0.06 seconds
Status: FAILED
==================================================

=== ERROR LOG - 2025-10-15 10:33:48 ===
Input file: /data/retarget/locomotion/raw/AMASS_SMPLXG/HUMAN4D/Subject2_Aude/RGB_StretchingTalking_S2_01_stageii.npz
Output file: ../robot/ik_based/pkl/010622.pkl
Robot type: unitree_g1
Processing time: 0.00 seconds
Error message: Unknown model type body, exiting!
Error type: ValueError
==================================================

=== FILE FAILURE - 2025-10-15 10:33:48 ===
File index: 010622
File number: 2533/9667
Input file: /data/retarget/locomotion/raw/AMASS_SMPLXG/HUMAN4D/Subject2_Aude/RGB_StretchingTalking_S2_01_stageii.npz
Output file: ../robot/ik_based/pkl/010622.pkl
Processing time: 0.00 seconds
Total file time: 0.06 seconds
Status: FAILED
==================================================

=== ERROR LOG - 2025-10-15 10:33:48 ===
Input file: /data/retarget/locomotion/raw/AMASS_SMPLXG/HUMAN4D/Subject2_Aude/RGB_TalkingWalking_S2_01_stageii.npz
Output file: ../robot/ik_based/pkl/010623.pkl
Robot type: unitree_g1
Processing time: 0.00 seconds
Error message: Unknown model type body, exiting!
Error type: ValueError
==================================================

=== FILE FAILURE - 2025-10-15 10:33:48 ===
File index: 010623
File number: 2534/9667
Input file: /data/retarget/locomotion/raw/AMASS_SMPLXG/HUMAN4D/Subject2_Aude/RGB_TalkingWalking_S2_01_stageii.npz
Output file: ../robot/ik_based/pkl/010623.pkl
Processing time: 0.00 seconds
Total file time: 0.06 seconds
Status: FAILED
==================================================

=== ERROR LOG - 2025-10-15 10:33:48 ===
Input file: /data/retarget/locomotion/raw/AMASS_SMPLXG/HUMAN4D/Subject2_Aude/RGB_Talking_S2_01_stageii.npz
Output file: ../robot/ik_based/pkl/010624.pkl
Robot type: unitree_g1
Processing time: 0.00 seconds
Error message: Unknown model type body, exiting!
Error type: ValueError
==================================================

=== FILE FAILURE - 2025-10-15 10:33:48 ===
File index: 010624
File number: 2535/9667
Input file: /data/retarget/locomotion/raw/AMASS_SMPLXG/HUMAN4D/Subject2_Aude/RGB_Talking_S2_01_stageii.npz
Output file: ../robot/ik_based/pkl/010624.pkl
Processing time: 0.00 seconds
Total file time: 0.05 seconds
Status: FAILED
==================================================

=== ERROR LOG - 2025-10-15 10:33:48 ===
Input file: /data/retarget/locomotion/raw/AMASS_SMPLXG/HUMAN4D/Subject2_Aude/RGB_WatchingScaryMovie_S2_01_stageii.npz
Output file: ../robot/ik_based/pkl/010625.pkl
Robot type: unitree_g1
Processing time: 0.00 seconds
Error message: Unknown model type body, exiting!
Error type: ValueError
==================================================

=== FILE FAILURE - 2025-10-15 10:33:48 ===
File index: 010625
File number: 2536/9667
Input file: /data/retarget/locomotion/raw/AMASS_SMPLXG/HUMAN4D/Subject2_Aude/RGB_WatchingScaryMovie_S2_01_stageii.npz
Output file: ../robot/ik_based/pkl/010625.pkl
Processing time: 0.00 seconds
Total file time: 0.05 seconds
Status: FAILED
==================================================

=== ERROR LOG - 2025-10-15 10:33:48 ===
Input file: /data/retarget/locomotion/raw/AMASS_SMPLXG/HUMAN4D/Subject2_Aude/female_stagei.npz
Output file: ../robot/ik_based/pkl/010626.pkl
Robot type: unitree_g1
Processing time: 0.00 seconds
Error message: Unknown model type body, exiting!
Error type: ValueError
==================================================

=== FILE FAILURE - 2025-10-15 10:33:48 ===
File index: 010626
File number: 2537/9667
Input file: /data/retarget/locomotion/raw/AMASS_SMPLXG/HUMAN4D/Subject2_Aude/female_stagei.npz
Output file: ../robot/ik_based/pkl/010626.pkl
Processing time: 0.00 seconds
Total file time: 0.05 seconds
Status: FAILED
==================================================

=== ERROR LOG - 2025-10-15 10:33:48 ===
Input file: /data/retarget/locomotion/raw/AMASS_SMPLXG/HUMAN4D/Subject3_4_Carine/INF_Dancing_S3S4_01_stageii.npz
Output file: ../robot/ik_based/pkl/010627.pkl
Robot type: unitree_g1
Processing time: 0.00 seconds
Error message: Unknown model type body, exiting!
Error type: ValueError
==================================================

=== FILE FAILURE - 2025-10-15 10:33:48 ===
File index: 010627
File number: 2538/9667
Input file: /data/retarget/locomotion/raw/AMASS_SMPLXG/HUMAN4D/Subject3_4_Carine/INF_Dancing_S3S4_01_stageii.npz
Output file: ../robot/ik_based/pkl/010627.pkl
Processing time: 0.00 seconds
Total file time: 0.06 seconds
Status: FAILED
==================================================

=== ERROR LOG - 2025-10-15 10:33:48 ===
Input file: /data/retarget/locomotion/raw/AMASS_SMPLXG/HUMAN4D/Subject3_4_Carine/INF_PhysicalExamination_S3S4_01_stageii.npz
Output file: ../robot/ik_based/pkl/010628.pkl
Robot type: unitree_g1
Processing time: 0.00 seconds
Error message: Unknown model type body, exiting!
Error type: ValueError
==================================================

=== FILE FAILURE - 2025-10-15 10:33:48 ===
File index: 010628
File number: 2539/9667
Input file: /data/retarget/locomotion/raw/AMASS_SMPLXG/HUMAN4D/Subject3_4_Carine/INF_PhysicalExamination_S3S4_01_stageii.npz
Output file: ../robot/ik_based/pkl/010628.pkl
Processing time: 0.00 seconds
Total file time: 0.07 seconds
Status: FAILED
==================================================

=== ERROR LOG - 2025-10-15 10:33:48 ===
Input file: /data/retarget/locomotion/raw/AMASS_SMPLXG/HUMAN4D/Subject3_4_Carine/INF_PlayingCards_S3S4_01_stageii.npz
Output file: ../robot/ik_based/pkl/010629.pkl
Robot type: unitree_g1
Processing time: 0.00 seconds
Error message: Unknown model type body, exiting!
Error type: ValueError
==================================================

=== FILE FAILURE - 2025-10-15 10:33:48 ===
File index: 010629
File number: 2540/9667
Input file: /data/retarget/locomotion/raw/AMASS_SMPLXG/HUMAN4D/Subject3_4_Carine/INF_PlayingCards_S3S4_01_stageii.npz
Output file: ../robot/ik_based/pkl/010629.pkl
Processing time: 0.00 seconds
Total file time: 0.06 seconds
Status: FAILED
==================================================

=== ERROR LOG - 2025-10-15 10:33:48 ===
Input file: /data/retarget/locomotion/raw/AMASS_SMPLXG/HUMAN4D/Subject3_4_Carine/INF_TalkingWhispering_S3S4_02_stageii.npz
Output file: ../robot/ik_based/pkl/010630.pkl
Robot type: unitree_g1
Processing time: 0.00 seconds
Error message: Unknown model type body, exiting!
Error type: ValueError
==================================================

=== FILE FAILURE - 2025-10-15 10:33:48 ===
File index: 010630
File number: 2541/9667
Input file: /data/retarget/locomotion/raw/AMASS_SMPLXG/HUMAN4D/Subject3_4_Carine/INF_TalkingWhispering_S3S4_02_stageii.npz
Output file: ../robot/ik_based/pkl/010630.pkl
Processing time: 0.00 seconds
Total file time: 0.06 seconds
Status: FAILED
==================================================

=== ERROR LOG - 2025-10-15 10:33:48 ===
Input file: /data/retarget/locomotion/raw/AMASS_SMPLXG/HUMAN4D/Subject3_4_Carine/INF_WatchingFootball_S3S4_01_stageii.npz
Output file: ../robot/ik_based/pkl/010631.pkl
Robot type: unitree_g1
Processing time: 0.00 seconds
Error message: Unknown model type body, exiting!
Error type: ValueError
==================================================

=== FILE FAILURE - 2025-10-15 10:33:48 ===
File index: 010631
File number: 2542/9667
Input file: /data/retarget/locomotion/raw/AMASS_SMPLXG/HUMAN4D/Subject3_4_Carine/INF_WatchingFootball_S3S4_01_stageii.npz
Output file: ../robot/ik_based/pkl/010631.pkl
Processing time: 0.00 seconds
Total file time: 0.05 seconds
Status: FAILED
==================================================

=== ERROR LOG - 2025-10-15 10:33:48 ===
Input file: /data/retarget/locomotion/raw/AMASS_SMPLXG/HUMAN4D/Subject3_4_Carine/RGB_Dancing_S3S4_01_stageii.npz
Output file: ../robot/ik_based/pkl/010632.pkl
Robot type: unitree_g1
Processing time: 0.00 seconds
Error message: Unknown model type body, exiting!
Error type: ValueError
==================================================

=== FILE FAILURE - 2025-10-15 10:33:48 ===
File index: 010632
File number: 2543/9667
Input file: /data/retarget/locomotion/raw/AMASS_SMPLXG/HUMAN4D/Subject3_4_Carine/RGB_Dancing_S3S4_01_stageii.npz
Output file: ../robot/ik_based/pkl/010632.pkl
Processing time: 0.00 seconds
Total file time: 0.06 seconds
Status: FAILED
==================================================

=== ERROR LOG - 2025-10-15 10:33:48 ===
Input file: /data/retarget/locomotion/raw/AMASS_SMPLXG/HUMAN4D/Subject3_4_Carine/RGB_PhysicalExamination_S3S4_02_stageii.npz
Output file: ../robot/ik_based/pkl/010633.pkl
Robot type: unitree_g1
Processing time: 0.00 seconds
Error message: Unknown model type body, exiting!
Error type: ValueError
==================================================

=== FILE FAILURE - 2025-10-15 10:33:48 ===
File index: 010633
File number: 2544/9667
Input file: /data/retarget/locomotion/raw/AMASS_SMPLXG/HUMAN4D/Subject3_4_Carine/RGB_PhysicalExamination_S3S4_02_stageii.npz
Output file: ../robot/ik_based/pkl/010633.pkl
Processing time: 0.00 seconds
Total file time: 0.06 seconds
Status: FAILED
==================================================

=== ERROR LOG - 2025-10-15 10:33:48 ===
Input file: /data/retarget/locomotion/raw/AMASS_SMPLXG/HUMAN4D/Subject3_4_Carine/RGB_PlayingCards_S3S4_01_stageii.npz
Output file: ../robot/ik_based/pkl/010634.pkl
Robot type: unitree_g1
Processing time: 0.00 seconds
Error message: Unknown model type body, exiting!
Error type: ValueError
==================================================

=== FILE FAILURE - 2025-10-15 10:33:48 ===
File index: 010634
File number: 2545/9667
Input file: /data/retarget/locomotion/raw/AMASS_SMPLXG/HUMAN4D/Subject3_4_Carine/RGB_PlayingCards_S3S4_01_stageii.npz
Output file: ../robot/ik_based/pkl/010634.pkl
Processing time: 0.00 seconds
Total file time: 0.06 seconds
Status: FAILED
==================================================

=== ERROR LOG - 2025-10-15 10:33:48 ===
Input file: /data/retarget/locomotion/raw/AMASS_SMPLXG/HUMAN4D/Subject3_4_Carine/RGB_TalkingWhispering_S3S4_01_stageii.npz
Output file: ../robot/ik_based/pkl/010635.pkl
Robot type: unitree_g1
Processing time: 0.00 seconds
Error message: Unknown model type body, exiting!
Error type: ValueError
==================================================

=== FILE FAILURE - 2025-10-15 10:33:48 ===
File index: 010635
File number: 2546/9667
Input file: /data/retarget/locomotion/raw/AMASS_SMPLXG/HUMAN4D/Subject3_4_Carine/RGB_TalkingWhispering_S3S4_01_stageii.npz
Output file: ../robot/ik_based/pkl/010635.pkl
Processing time: 0.00 seconds
Total file time: 0.06 seconds
Status: FAILED
==================================================

=== ERROR LOG - 2025-10-15 10:33:48 ===
Input file: /data/retarget/locomotion/raw/AMASS_SMPLXG/HUMAN4D/Subject3_4_Carine/RGB_WatchingFootball_S3S4_01_stageii.npz
Output file: ../robot/ik_based/pkl/010636.pkl
Robot type: unitree_g1
Processing time: 0.00 seconds
Error message: Unknown model type body, exiting!
Error type: ValueError
==================================================

=== FILE FAILURE - 2025-10-15 10:33:49 ===
File index: 010636
File number: 2547/9667
Input file: /data/retarget/locomotion/raw/AMASS_SMPLXG/HUMAN4D/Subject3_4_Carine/RGB_WatchingFootball_S3S4_01_stageii.npz
Output file: ../robot/ik_based/pkl/010636.pkl
Processing time: 0.00 seconds
Total file time: 0.06 seconds
Status: FAILED
==================================================

=== ERROR LOG - 2025-10-15 10:33:49 ===
Input file: /data/retarget/locomotion/raw/AMASS_SMPLXG/HUMAN4D/Subject3_4_Carine/female_stagei.npz
Output file: ../robot/ik_based/pkl/010637.pkl
Robot type: unitree_g1
Processing time: 0.00 seconds
Error message: Unknown model type body, exiting!
Error type: ValueError
==================================================

=== FILE FAILURE - 2025-10-15 10:33:49 ===
File index: 010637
File number: 2548/9667
Input file: /data/retarget/locomotion/raw/AMASS_SMPLXG/HUMAN4D/Subject3_4_Carine/female_stagei.npz
Output file: ../robot/ik_based/pkl/010637.pkl
Processing time: 0.00 seconds
Total file time: 0.05 seconds
Status: FAILED
==================================================

=== ERROR LOG - 2025-10-15 10:33:49 ===
Input file: /data/retarget/locomotion/raw/AMASS_SMPLXG/HUMAN4D/Subject3_4_Medhi/INF_Dancing_S3S4_01_stageii.npz
Output file: ../robot/ik_based/pkl/010638.pkl
Robot type: unitree_g1
Processing time: 0.00 seconds
[...]

=== SKIPPED (ALREADY EXISTS) - 2025-10-15 10:34:22 ===
File index: 017694
Input file: /data/retarget/locomotion/raw/AMASS_SMPLXG/WEIZMANN/70/Slow_SShapeRL(21)_stageii.npz
Output file: ../robot/ik_based/pkl/017694.pkl
Status: SKIPPED (ALREADY EXISTS)
==================================================

=== SKIPPED (ALREADY EXISTS) - 2025-10-15 10:34:22 ===
File index: 017695
Input file: /data/retarget/locomotion/raw/AMASS_SMPLXG/WEIZMANN/70/Slow_SShapeRL(22)_stageii.npz
Output file: ../robot/ik_based/pkl/017695.pkl
Status: SKIPPED (ALREADY EXISTS)
==================================================

=== SKIPPED (ALREADY EXISTS) - 2025-10-15 10:34:22 ===
File index: 017696
Input file: /data/retarget/locomotion/raw/AMASS_SMPLXG/WEIZMANN/70/Slow_SShapeRL(23)_stageii.npz
Output file: ../robot/ik_based/pkl/017696.pkl
Status: SKIPPED (ALREADY EXISTS)
==================================================

=== SKIPPED (ALREADY EXISTS) - 2025-10-15 10:34:22 ===
File index: 017697
Input file: /data/retarget/locomotion/raw/AMASS_SMPLXG/WEIZMANN/70/Slow_SShapeRL(3)_stageii.npz
Output file: ../robot/ik_based/pkl/017697.pkl
Status: SKIPPED (ALREADY EXISTS)
==================================================

=== SKIPPED (ALREADY EXISTS) - 2025-10-15 10:34:22 ===
File index: 017698
Input file: /data/retarget/locomotion/raw/AMASS_SMPLXG/WEIZMANN/70/Slow_SShapeRL(4)_stageii.npz
Output file: ../robot/ik_based/pkl/017698.pkl
Status: SKIPPED (ALREADY EXISTS)
==================================================

=== SKIPPED (ALREADY EXISTS) - 2025-10-15 10:34:22 ===
File index: 017699
Input file: /data/retarget/locomotion/raw/AMASS_SMPLXG/WEIZMANN/70/Slow_SShapeRL(5)_stageii.npz
Output file: ../robot/ik_based/pkl/017699.pkl
Status: SKIPPED (ALREADY EXISTS)
==================================================

=== SKIPPED (ALREADY EXISTS) - 2025-10-15 10:34:22 ===
File index: 017700
Input file: /data/retarget/locomotion/raw/AMASS_SMPLXG/WEIZMANN/70/Slow_SShapeRL(6)_stageii.npz
Output file: ../robot/ik_based/pkl/017700.pkl
Status: SKIPPED (ALREADY EXISTS)
==================================================

=== SKIPPED (ALREADY EXISTS) - 2025-10-15 10:34:22 ===
File index: 017701
Input file: /data/retarget/locomotion/raw/AMASS_SMPLXG/WEIZMANN/70/Slow_SShapeRL(7)_stageii.npz
Output file: ../robot/ik_based/pkl/017701.pkl
Status: SKIPPED (ALREADY EXISTS)
==================================================

=== SKIPPED (ALREADY EXISTS) - 2025-10-15 10:34:22 ===
File index: 017702
Input file: /data/retarget/locomotion/raw/AMASS_SMPLXG/WEIZMANN/70/Slow_SShapeRL(8)_stageii.npz
Output file: ../robot/ik_based/pkl/017702.pkl
Status: SKIPPED (ALREADY EXISTS)
==================================================

=== SKIPPED (ALREADY EXISTS) - 2025-10-15 10:34:22 ===
File index: 017703
Input file: /data/retarget/locomotion/raw/AMASS_SMPLXG/WEIZMANN/70/Slow_SShapeRL(9)_stageii.npz
Output file: ../robot/ik_based/pkl/017703.pkl
Status: SKIPPED (ALREADY EXISTS)
==================================================

=== SKIPPED (ALREADY EXISTS) - 2025-10-15 10:34:22 ===
File index: 017704
Input file: /data/retarget/locomotion/raw/AMASS_SMPLXG/WEIZMANN/70/Slow_StraightLong(1)_stageii.npz
Output file: ../robot/ik_based/pkl/017704.pkl
Status: SKIPPED (ALREADY EXISTS)
==================================================

=== SKIPPED (ALREADY EXISTS) - 2025-10-15 10:34:22 ===
File index: 017705
Input file: /data/retarget/locomotion/raw/AMASS_SMPLXG/WEIZMANN/70/Slow_StraightLong(10)_stageii.npz
Output file: ../robot/ik_based/pkl/017705.pkl
Status: SKIPPED (ALREADY EXISTS)
==================================================

=== SKIPPED (ALREADY EXISTS) - 2025-10-15 10:34:22 ===
File index: 017706
Input file: /data/retarget/locomotion/raw/AMASS_SMPLXG/WEIZMANN/70/Slow_StraightLong(11)_stageii.npz
Output file: ../robot/ik_based/pkl/017706.pkl
Status: SKIPPED (ALREADY EXISTS)
==================================================

=== SKIPPED (ALREADY EXISTS) - 2025-10-15 10:34:22 ===
File index: 017707
Input file: /data/retarget/locomotion/raw/AMASS_SMPLXG/WEIZMANN/70/Slow_StraightLong(12)_stageii.npz
Output file: ../robot/ik_based/pkl/017707.pkl
Status: SKIPPED (ALREADY EXISTS)
==================================================

=== SKIPPED (ALREADY EXISTS) - 2025-10-15 10:34:22 ===
File index: 017708
Input file: /data/retarget/locomotion/raw/AMASS_SMPLXG/WEIZMANN/70/Slow_StraightLong(13)_stageii.npz
Output file: ../robot/ik_based/pkl/017708.pkl
Status: SKIPPED (ALREADY EXISTS)
==================================================

=== SKIPPED (ALREADY EXISTS) - 2025-10-15 10:34:22 ===
File index: 017709
Input file: /data/retarget/locomotion/raw/AMASS_SMPLXG/WEIZMANN/70/Slow_StraightLong(14)_stageii.npz
Output file: ../robot/ik_based/pkl/017709.pkl
Status: SKIPPED (ALREADY EXISTS)
==================================================

=== SKIPPED (ALREADY EXISTS) - 2025-10-15 10:34:22 ===
File index: 017710
Input file: /data/retarget/locomotion/raw/AMASS_SMPLXG/WEIZMANN/70/Slow_StraightLong(15)_stageii.npz
Output file: ../robot/ik_based/pkl/017710.pkl
Status: SKIPPED (ALREADY EXISTS)
==================================================

=== SKIPPED (ALREADY EXISTS) - 2025-10-15 10:34:22 ===
File index: 017711
Input file: /data/retarget/locomotion/raw/AMASS_SMPLXG/WEIZMANN/70/Slow_StraightLong(16)_stageii.npz
Output file: ../robot/ik_based/pkl/017711.pkl
Status: SKIPPED (ALREADY EXISTS)
==================================================

=== SKIPPED (ALREADY EXISTS) - 2025-10-15 10:34:22 ===
File index: 017712
Input file: /data/retarget/locomotion/raw/AMASS_SMPLXG/WEIZMANN/70/Slow_StraightLong(17)_stageii.npz
Output file: ../robot/ik_based/pkl/017712.pkl
Status: SKIPPED (ALREADY EXISTS)
==================================================

=== SKIPPED (ALREADY EXISTS) - 2025-10-15 10:34:22 ===
File index: 017713
Input file: /data/retarget/locomotion/raw/AMASS_SMPLXG/WEIZMANN/70/Slow_StraightLong(18)_stageii.npz
Output file: ../robot/ik_based/pkl/017713.pkl
Status: SKIPPED (ALREADY EXISTS)
==================================================

=== SKIPPED (ALREADY EXISTS) - 2025-10-15 10:34:22 ===
File index: 017714
Input file: /data/retarget/locomotion/raw/AMASS_SMPLXG/WEIZMANN/70/Slow_StraightLong(19)_stageii.npz
Output file: ../robot/ik_based/pkl/017714.pkl
Status: SKIPPED (ALREADY EXISTS)
==================================================

=== SKIPPED (ALREADY EXISTS) - 2025-10-15 10:34:22 ===
File index: 017715
Input file: /data/retarget/locomotion/raw/AMASS_SMPLXG/WEIZMANN/70/Slow_StraightLong(2)_stageii.npz
Output file: ../robot/ik_based/pkl/017715.pkl
Status: SKIPPED (ALREADY EXISTS)
==================================================

=== SKIPPED (ALREADY EXISTS) - 2025-10-15 10:34:22 ===
File index: 017716
Input file: /data/retarget/locomotion/raw/AMASS_SMPLXG/WEIZMANN/70/Slow_StraightLong(20)_stageii.npz
Output file: ../robot/ik_based/pkl/017716.pkl
Status: SKIPPED (ALREADY EXISTS)
==================================================

=== SKIPPED (ALREADY EXISTS) - 2025-10-15 10:34:22 ===
File index: 017717
Input file: /data/retarget/locomotion/raw/AMASS_SMPLXG/WEIZMANN/70/Slow_StraightLong(21)_stageii.npz
Output file: ../robot/ik_based/pkl/017717.pkl
Status: SKIPPED (ALREADY EXISTS)
==================================================

=== SKIPPED (ALREADY EXISTS) - 2025-10-15 10:34:22 ===
File index: 017718
Input file: /data/retarget/locomotion/raw/AMASS_SMPLXG/WEIZMANN/70/Slow_StraightLong(22)_stageii.npz
Output file: ../robot/ik_based/pkl/017718.pkl
Status: SKIPPED (ALREADY EXISTS)
==================================================

=== SKIPPED (ALREADY EXISTS) - 2025-10-15 10:34:22 ===
File index: 017719
Input file: /data/retarget/locomotion/raw/AMASS_SMPLXG/WEIZMANN/70/Slow_StraightLong(23)_stageii.npz
Output file: ../robot/ik_based/pkl/017719.pkl
Status: SKIPPED (ALREADY EXISTS)
==================================================

=== SKIPPED (ALREADY EXISTS) - 2025-10-15 10:34:22 ===
File index: 017720
Input file: /data/retarget/locomotion/raw/AMASS_SMPLXG/WEIZMANN/70/Slow_StraightLong(24)_stageii.npz
Output file: ../robot/ik_based/pkl/017720.pkl
Status: SKIPPED (ALREADY EXISTS)
==================================================

=== SKIPPED (ALREADY EXISTS) - 2025-10-15 10:34:22 ===
File index: 017721
Input file: /data/retarget/locomotion/raw/AMASS_SMPLXG/WEIZMANN/70/Slow_StraightLong(25)_stageii.npz
Output file: ../robot/ik_based/pkl/017721.pkl
Status: SKIPPED (ALREADY EXISTS)
==================================================

=== SKIPPED (ALREADY EXISTS) - 2025-10-15 10:34:22 ===
File index: 017722
Input file: /data/retarget/locomotion/raw/AMASS_SMPLXG/WEIZMANN/70/Slow_StraightLong(26)_stageii.npz
Output file: ../robot/ik_based/pkl/017722.pkl
Status: SKIPPED (ALREADY EXISTS)
==================================================

=== SKIPPED (ALREADY EXISTS) - 2025-10-15 10:34:22 ===
File index: 017723
Input file: /data/retarget/locomotion/raw/AMASS_SMPLXG/WEIZMANN/70/Slow_StraightLong(27)_stageii.npz
Output file: ../robot/ik_based/pkl/017723.pkl
Status: SKIPPED (ALREADY EXISTS)
==================================================

=== SKIPPED (ALREADY EXISTS) - 2025-10-15 10:34:22 ===
File index: 017724
Input file: /data/retarget/locomotion/raw/AMASS_SMPLXG/WEIZMANN/70/Slow_StraightLong(28)_stageii.npz
Output file: ../robot/ik_based/pkl/017724.pkl
Status: SKIPPED (ALREADY EXISTS)
==================================================

=== SKIPPED (ALREADY EXISTS) - 2025-10-15 10:34:22 ===
File index: 017725
Input file: /data/retarget/locomotion/raw/AMASS_SMPLXG/WEIZMANN/70/Slow_StraightLong(29)_stageii.npz
Output file: ../robot/ik_based/pkl/017725.pkl
Status: SKIPPED (ALREADY EXISTS)
==================================================

=== SKIPPED (ALREADY EXISTS) - 2025-10-15 10:34:22 ===
File index: 017726
Input file: /data/retarget/locomotion/raw/AMASS_SMPLXG/WEIZMANN/70/Slow_StraightLong(3)_stageii.npz
Output file: ../robot/ik_based/pkl/017726.pkl
Status: SKIPPED (ALREADY EXISTS)
==================================================

=== SKIPPED (ALREADY EXISTS) - 2025-10-15 10:34:22 ===
File index: 017727
Input file: /data/retarget/locomotion/raw/AMASS_SMPLXG/WEIZMANN/70/Slow_StraightLong(30)_stageii.npz
Output file: ../robot/ik_based/pkl/017727.pkl
Status: SKIPPED (ALREADY EXISTS)
==================================================

=== SKIPPED (ALREADY EXISTS) - 2025-10-15 10:34:22 ===
File index: 017728
Input file: /data/retarget/locomotion/raw/AMASS_SMPLXG/WEIZMANN/70/Slow_StraightLong(31)_stageii.npz
Output file: ../robot/ik_based/pkl/017728.pkl
Status: SKIPPED (ALREADY EXISTS)
==================================================

=== SKIPPED (ALREADY EXISTS) - 2025-10-15 10:34:22 ===
File index: 017729
Input file: /data/retarget/locomotion/raw/AMASS_SMPLXG/WEIZMANN/70/Slow_StraightLong(32)_stageii.npz
Output file: ../robot/ik_based/pkl/017729.pkl
Status: SKIPPED (ALREADY EXISTS)
==================================================

=== SKIPPED (ALREADY EXISTS) - 2025-10-15 10:34:22 ===
File index: 017730
Input file: /data/retarget/locomotion/raw/AMASS_SMPLXG/WEIZMANN/70/Slow_StraightLong(33)_stageii.npz
Output file: ../robot/ik_based/pkl/017730.pkl
Status: SKIPPED (ALREADY EXISTS)
==================================================

=== SKIPPED (ALREADY EXISTS) - 2025-10-15 10:34:22 ===
File index: 017731
Input file: /data/retarget/locomotion/raw/AMASS_SMPLXG/WEIZMANN/70/Slow_StraightLong(34)_stageii.npz
Output file: ../robot/ik_based/pkl/017731.pkl
Status: SKIPPED (ALREADY EXISTS)
==================================================

=== SKIPPED (ALREADY EXISTS) - 2025-10-15 10:34:22 ===
File index: 017732
Input file: /data/retarget/locomotion/raw/AMASS_SMPLXG/WEIZMANN/70/Slow_StraightLong(35)_stageii.npz
Output file: ../robot/ik_based/pkl/017732.pkl
Status: SKIPPED (ALREADY EXISTS)
==================================================

=== SKIPPED (ALREADY EXISTS) - 2025-10-15 10:34:22 ===
File index: 017733
Input file: /data/retarget/locomotion/raw/AMASS_SMPLXG/WEIZMANN/70/Slow_StraightLong(36)_stageii.npz
Output file: ../robot/ik_based/pkl/017733.pkl
Status: SKIPPED (ALREADY EXISTS)
==================================================

=== SKIPPED (ALREADY EXISTS) - 2025-10-15 10:34:22 ===
File index: 017734
Input file: /data/retarget/locomotion/raw/AMASS_SMPLXG/WEIZMANN/70/Slow_StraightLong(37)_stageii.npz
Output file: ../robot/ik_based/pkl/017734.pkl
Status: SKIPPED (ALREADY EXISTS)
==================================================

=== SKIPPED (ALREADY EXISTS) - 2025-10-15 10:34:22 ===
File index: 017735
Input file: /data/retarget/locomotion/raw/AMASS_SMPLXG/WEIZMANN/70/Slow_StraightLong(38)_stageii.npz
Output file: ../robot/ik_based/pkl/017735.pkl
Status: SKIPPED (ALREADY EXISTS)
==================================================

=== SKIPPED (ALREADY EXISTS) - 2025-10-15 10:34:22 ===
File index: 017736
Input file: /data/retarget/locomotion/raw/AMASS_SMPLXG/WEIZMANN/70/Slow_StraightLong(39)_stageii.npz
Output file: ../robot/ik_based/pkl/017736.pkl
Status: SKIPPED (ALREADY EXISTS)
==================================================

=== SKIPPED (ALREADY EXISTS) - 2025-10-15 10:34:22 ===
File index: 017737
Input file: /data/retarget/locomotion/raw/AMASS_SMPLXG/WEIZMANN/70/Slow_StraightLong(4)_stageii.npz
Output file: ../robot/ik_based/pkl/017737.pkl
Status: SKIPPED (ALREADY EXISTS)
==================================================

=== SKIPPED (ALREADY EXISTS) - 2025-10-15 10:34:22 ===
File index: 017738
Input file: /data/retarget/locomotion/raw/AMASS_SMPLXG/WEIZMANN/70/Slow_StraightLong(40)_stageii.npz
Output file: ../robot/ik_based/pkl/017738.pkl
Status: SKIPPED (ALREADY EXISTS)
==================================================

=== SKIPPED (ALREADY EXISTS) - 2025-10-15 10:34:22 ===
File index: 017739
Input file: /data/retarget/locomotion/raw/AMASS_SMPLXG/WEIZMANN/70/Slow_StraightLong(41)_stageii.npz
Output file: ../robot/ik_based/pkl/017739.pkl
Status: SKIPPED (ALREADY EXISTS)
==================================================

=== SKIPPED (ALREADY EXISTS) - 2025-10-15 10:34:22 ===
File index: 017740
Input file: /data/retarget/locomotion/raw/AMASS_SMPLXG/WEIZMANN/70/Slow_StraightLong(42)_stageii.npz
Output file: ../robot/ik_based/pkl/017740.pkl
Status: SKIPPED (ALREADY EXISTS)
==================================================

=== SKIPPED (ALREADY EXISTS) - 2025-10-15 10:34:22 ===
File index: 017741
Input file: /data/retarget/locomotion/raw/AMASS_SMPLXG/WEIZMANN/70/Slow_StraightLong(43)_stageii.npz
Output file: ../robot/ik_based/pkl/017741.pkl
Status: SKIPPED (ALREADY EXISTS)
==================================================

=== SKIPPED (ALREADY EXISTS) - 2025-10-15 10:34:22 ===
File index: 017742
Input file: /data/retarget/locomotion/raw/AMASS_SMPLXG/WEIZMANN/70/Slow_StraightLong(44)_stageii.npz
Output file: ../robot/ik_based/pkl/017742.pkl
Status: SKIPPED (ALREADY EXISTS)
==================================================

=== SKIPPED (ALREADY EXISTS) - 2025-10-15 10:34:22 ===
File index: 017743
Input file: /data/retarget/locomotion/raw/AMASS_SMPLXG/WEIZMANN/70/Slow_StraightLong(45)_stageii.npz
Output file: ../robot/ik_based/pkl/017743.pkl
Status: SKIPPED (ALREADY EXISTS)
==================================================

=== SKIPPED (ALREADY EXISTS) - 2025-10-15 10:34:22 ===
File index: 017744
Input file: /data/retarget/locomotion/raw/AMASS_SMPLXG/WEIZMANN/70/Slow_StraightLong(46)_stageii.npz
Output file: ../robot/ik_based/pkl/017744.pkl
Status: SKIPPED (ALREADY EXISTS)
==================================================

=== SKIPPED (ALREADY EXISTS) - 2025-10-15 10:34:22 ===
File index: 017745
Input file: /data/retarget/locomotion/raw/AMASS_SMPLXG/WEIZMANN/70/Slow_StraightLong(47)_stageii.npz
Output file: ../robot/ik_based/pkl/017745.pkl
Status: SKIPPED (ALREADY EXISTS)
==================================================

=== SKIPPED (ALREADY EXISTS) - 2025-10-15 10:34:22 ===
File index: 017746
Input file: /data/retarget/locomotion/raw/AMASS_SMPLXG/WEIZMANN/70/Slow_StraightLong(48)_stageii.npz
Output file: ../robot/ik_based/pkl/017746.pkl
Status: SKIPPED (ALREADY EXISTS)
==================================================

=== SKIPPED (ALREADY EXISTS) - 2025-10-15 10:34:22 ===
File index: 017747
Input file: /data/retarget/locomotion/raw/AMASS_SMPLXG/WEIZMANN/70/Slow_StraightLong(5)_stageii.npz
Output file: ../robot/ik_based/pkl/017747.pkl
Status: SKIPPED (ALREADY EXISTS)
==================================================

=== SKIPPED (ALREADY EXISTS) - 2025-10-15 10:34:22 ===
File index: 017748
Input file: /data/retarget/locomotion/raw/AMASS_SMPLXG/WEIZMANN/70/Slow_StraightLong(6)_stageii.npz
Output file: ../robot/ik_based/pkl/017748.pkl
Status: SKIPPED (ALREADY EXISTS)
==================================================

=== SKIPPED (ALREADY EXISTS) - 2025-10-15 10:34:22 ===
File index: 017749
Input file: /data/retarget/locomotion/raw/AMASS_SMPLXG/WEIZMANN/70/Slow_StraightLong(7)_stageii.npz
Output file: ../robot/ik_based/pkl/017749.pkl
Status: SKIPPED (ALREADY EXISTS)
==================================================

=== SKIPPED (ALREADY EXISTS) - 2025-10-15 10:34:22 ===
File index: 017750
Input file: /data/retarget/locomotion/raw/AMASS_SMPLXG/WEIZMANN/70/Slow_StraightLong(8)_stageii.npz
Output file: ../robot/ik_based/pkl/017750.pkl
Status: SKIPPED (ALREADY EXISTS)
==================================================

=== SKIPPED (ALREADY EXISTS) - 2025-10-15 10:34:22 ===
File index: 017751
Input file: /data/retarget/locomotion/raw/AMASS_SMPLXG/WEIZMANN/70/Slow_StraightLong(9)_stageii.npz
Output file: ../robot/ik_based/pkl/017751.pkl
Status: SKIPPED (ALREADY EXISTS)
==================================================

=== SKIPPED (ALREADY EXISTS) - 2025-10-15 10:34:22 ===
File index: 017752
Input file: /data/retarget/locomotion/raw/AMASS_SMPLXG/WEIZMANN/70/Slow_StraightShort(1)_stageii.npz
Output file: ../robot/ik_based/pkl/017752.pkl
Status: SKIPPED (ALREADY EXISTS)
==================================================

=== SKIPPED (ALREADY EXISTS) - 2025-10-15 10:34:22 ===
File index: 017753
Input file: /data/retarget/locomotion/raw/AMASS_SMPLXG/WEIZMANN/70/Slow_StraightShort(2)_stageii.npz
Output file: ../robot/ik_based/pkl/017753.pkl
Status: SKIPPED (ALREADY EXISTS)
==================================================

=== SKIPPED (ALREADY EXISTS) - 2025-10-15 10:34:22 ===
File index: 017754
Input file: /data/retarget/locomotion/raw/AMASS_SMPLXG/WEIZMANN/70/Slow_StraightShort(3)_stageii.npz
Output file: ../robot/ik_based/pkl/017754.pkl
Status: SKIPPED (ALREADY EXISTS)
==================================================

=== SKIPPED (ALREADY EXISTS) - 2025-10-15 10:34:22 ===
File index: 017755
Input file: /data/retarget/locomotion/raw/AMASS_SMPLXG/WEIZMANN/70/Slow_StraightShort(4)_stageii.npz
Output file: ../robot/ik_based/pkl/017755.pkl
Status: SKIPPED (ALREADY EXISTS)
==================================================

=== ERROR LOG - 2025-10-15 10:34:22 ===
Input file: /data/retarget/locomotion/raw/AMASS_SMPLXG/WEIZMANN/70/male_stagei.npz
Output file: ../robot/ik_based/pkl/017756.pkl
Robot type: unitree_g1
Processing time: 0.00 seconds
Error message: Unknown model type body, exiting!
Error type: ValueError
==================================================

=== FILE FAILURE - 2025-10-15 10:34:22 ===
File index: 017756
File number: 9667/9667
Input file: /data/retarget/locomotion/raw/AMASS_SMPLXG/WEIZMANN/70/male_stagei.npz
Output file: ../robot/ik_based/pkl/017756.pkl
Processing time: 0.00 seconds
Total file time: 0.06 seconds
Status: FAILED
==================================================

=== FINAL STATISTICS - 2025-10-15 10:34:22 ===
Total files processed: 9667
Successful: 9049
Failed: 618
, Total processing time: 45986.80 seconds
 Total execution time: 46471.40 seconds
Average processing time per file: 5.08 seconds
Average frames per file: 1084.6 frames (382 files with frames)
Total frames processed: 414,300 frames
==================================================
