
=== SUCCESS LOG - 2025-10-14 15:25:55 ===
Input file: /data/retarget/locomotion/raw/AMASS_SMPLXG/WEIZMANN/69/Mixed_SlowFast(24)_stageii.npz
Output file: ../robot/ik_based/pkl/017002.pkl
Robot type: unitree_g1
Processing time: 13.15 seconds

STEP-BY-STEP TIMING:
  Step 1 - Load SMPLX:        1.02s
  Step 2 - Align FPS:         1.27s
  Step 3 - Init Retarget:     1.16s
  Step 4 - Init Visualization: 0.00s
  Step 5 - Process Frames:    9.07s (avg: 0.159s/frame)
  Step 6 - Convert Arrays:    0.00s
  Step 7 - Forward Kinematics: 0.48s
  Step 8 - Save Data:         0.00s
Status: SUCCESS
==================================================

=== SUCCESS LOG - 2025-10-14 15:25:55 ===
Input file: /data/retarget/locomotion/raw/AMASS_SMPLXG/WEIZMANN/69/Mixed_SlowFast(22)_stageii.npz
Output file: ../robot/ik_based/pkl/017000.pkl
Robot type: unitree_g1
Processing time: 13.30 seconds

STEP-BY-STEP TIMING:
  Step 1 - Load SMPLX:        1.07s
  Step 2 - Align FPS:         1.12s
  Step 3 - Init Retarget:     1.15s
  Step 4 - Init Visualization: 0.00s
  Step 5 - Process Frames:    9.41s (avg: 0.149s/frame)
  Step 6 - Convert Arrays:    0.00s
  Step 7 - Forward Kinematics: 0.25s
  Step 8 - Save Data:         0.00s
Status: SUCCESS
==================================================

=== SUCCESS LOG - 2025-10-14 15:25:55 ===
Input file: /data/retarget/locomotion/raw/AMASS_SMPLXG/WEIZMANN/69/Mixed_SlowFast(23)_stageii.npz
Output file: ../robot/ik_based/pkl/017001.pkl
Robot type: unitree_g1
Processing time: 13.45 seconds

STEP-BY-STEP TIMING:
  Step 1 - Load SMPLX:        0.99s
  Step 2 - Align FPS:         1.42s
  Step 3 - Init Retarget:     1.02s
  Step 4 - Init Visualization: 0.00s
  Step 5 - Process Frames:    8.86s (avg: 0.170s/frame)
  Step 6 - Convert Arrays:    0.00s
  Step 7 - Forward Kinematics: 0.74s
  Step 8 - Save Data:         0.00s
Status: SUCCESS
==================================================

=== SUCCESS LOG - 2025-10-14 15:26:07 ===
Input file: /data/retarget/locomotion/raw/AMASS_SMPLXG/WEIZMANN/69/Mixed_SlowFast(27)_stageii.npz
Output file: ../robot/ik_based/pkl/017005.pkl
Robot type: unitree_g1
Processing time: 11.80 seconds

STEP-BY-STEP TIMING:
  Step 1 - Load SMPLX:        1.29s
  Step 2 - Align FPS:         0.83s
  Step 3 - Init Retarget:     0.40s
  Step 4 - Init Visualization: 0.00s
  Step 5 - Process Frames:    8.64s (avg: 0.184s/frame)
  Step 6 - Convert Arrays:    0.00s
  Step 7 - Forward Kinematics: 0.32s
  Step 8 - Save Data:         0.00s
Status: SUCCESS
==================================================

=== SUCCESS LOG - 2025-10-14 15:26:08 ===
Input file: /data/retarget/locomotion/raw/AMASS_SMPLXG/WEIZMANN/69/Mixed_SlowFast(26)_stageii.npz
Output file: ../robot/ik_based/pkl/017004.pkl
Robot type: unitree_g1
Processing time: 12.44 seconds

STEP-BY-STEP TIMING:
  Step 1 - Load SMPLX:        1.10s
  Step 2 - Align FPS:         1.05s
  Step 3 - Init Retarget:     0.44s
  Step 4 - Init Visualization: 0.00s
  Step 5 - Process Frames:    9.35s (avg: 0.176s/frame)
  Step 6 - Convert Arrays:    0.00s
  Step 7 - Forward Kinematics: 0.37s
  Step 8 - Save Data:         0.00s
Status: SUCCESS
==================================================

=== SUCCESS LOG - 2025-10-14 15:26:08 ===
Input file: /data/retarget/locomotion/raw/AMASS_SMPLXG/WEIZMANN/69/Mixed_SlowFast(25)_stageii.npz
Output file: ../robot/ik_based/pkl/017003.pkl
Robot type: unitree_g1
Processing time: 12.63 seconds

STEP-BY-STEP TIMING:
  Step 1 - Load SMPLX:        1.07s
  Step 2 - Align FPS:         1.01s
  Step 3 - Init Retarget:     0.42s
  Step 4 - Init Visualization: 0.00s
  Step 5 - Process Frames:    9.83s (avg: 0.170s/frame)
  Step 6 - Convert Arrays:    0.00s
  Step 7 - Forward Kinematics: 0.21s
  Step 8 - Save Data:         0.00s
Status: SUCCESS
==================================================

=== SUCCESS LOG - 2025-10-14 15:26:20 ===
Input file: /data/retarget/locomotion/raw/AMASS_SMPLXG/WEIZMANN/69/Mixed_SlowFast(29)_stageii.npz
Output file: ../robot/ik_based/pkl/017007.pkl
Robot type: unitree_g1
Processing time: 11.66 seconds

STEP-BY-STEP TIMING:
  Step 1 - Load SMPLX:        1.51s
  Step 2 - Align FPS:         0.73s
  Step 3 - Init Retarget:     0.54s
  Step 4 - Init Visualization: 0.00s
  Step 5 - Process Frames:    8.27s (avg: 0.165s/frame)
  Step 6 - Convert Arrays:    0.00s
  Step 7 - Forward Kinematics: 0.47s
  Step 8 - Save Data:         0.00s
Status: SUCCESS
==================================================

=== SUCCESS LOG - 2025-10-14 15:26:20 ===
Input file: /data/retarget/locomotion/raw/AMASS_SMPLXG/WEIZMANN/69/Mixed_SlowFast(28)_stageii.npz
Output file: ../robot/ik_based/pkl/017006.pkl
Robot type: unitree_g1
Processing time: 12.31 seconds

STEP-BY-STEP TIMING:
  Step 1 - Load SMPLX:        1.28s
  Step 2 - Align FPS:         0.46s
  Step 3 - Init Retarget:     0.55s
  Step 4 - Init Visualization: 0.00s
  Step 5 - Process Frames:    9.63s (avg: 0.166s/frame)
  Step 6 - Convert Arrays:    0.00s
  Step 7 - Forward Kinematics: 0.25s
  Step 8 - Save Data:         0.00s
Status: SUCCESS
==================================================

=== SUCCESS LOG - 2025-10-14 15:26:20 ===
Input file: /data/retarget/locomotion/raw/AMASS_SMPLXG/WEIZMANN/69/Mixed_SlowFast(3)_stageii.npz
Output file: ../robot/ik_based/pkl/017008.pkl
Robot type: unitree_g1
Processing time: 11.76 seconds

STEP-BY-STEP TIMING:
  Step 1 - Load SMPLX:        1.34s
  Step 2 - Align FPS:         1.13s
  Step 3 - Init Retarget:     0.42s
  Step 4 - Init Visualization: 0.00s
  Step 5 - Process Frames:    8.36s (avg: 0.121s/frame)
  Step 6 - Convert Arrays:    0.00s
  Step 7 - Forward Kinematics: 0.28s
  Step 8 - Save Data:         0.00s
Status: SUCCESS
==================================================

=== SUCCESS LOG - 2025-10-14 15:26:32 ===
Input file: /data/retarget/locomotion/raw/AMASS_SMPLXG/WEIZMANN/69/Mixed_SlowFast(30)_stageii.npz
Output file: ../robot/ik_based/pkl/017009.pkl
Robot type: unitree_g1
Processing time: 12.12 seconds

STEP-BY-STEP TIMING:
  Step 1 - Load SMPLX:        1.23s
  Step 2 - Align FPS:         0.53s
  Step 3 - Init Retarget:     0.42s
  Step 4 - Init Visualization: 0.00s
  Step 5 - Process Frames:    9.13s (avg: 0.160s/frame)
  Step 6 - Convert Arrays:    0.00s
  Step 7 - Forward Kinematics: 0.48s
  Step 8 - Save Data:         0.01s
Status: SUCCESS
==================================================

=== SUCCESS LOG - 2025-10-14 15:26:32 ===
Input file: /data/retarget/locomotion/raw/AMASS_SMPLXG/WEIZMANN/69/Mixed_SlowFast(4)_stageii.npz
Output file: ../robot/ik_based/pkl/017010.pkl
Robot type: unitree_g1
Processing time: 11.85 seconds

STEP-BY-STEP TIMING:
  Step 1 - Load SMPLX:        1.04s
  Step 2 - Align FPS:         0.64s
  Step 3 - Init Retarget:     0.34s
  Step 4 - Init Visualization: 0.00s
  Step 5 - Process Frames:    9.25s (avg: 0.168s/frame)
  Step 6 - Convert Arrays:    0.00s
  Step 7 - Forward Kinematics: 0.31s
  Step 8 - Save Data:         0.00s
Status: SUCCESS
==================================================

=== SUCCESS LOG - 2025-10-14 15:26:32 ===
Input file: /data/retarget/locomotion/raw/AMASS_SMPLXG/WEIZMANN/69/Mixed_SlowFast(5)_stageii.npz
Output file: ../robot/ik_based/pkl/017011.pkl
Robot type: unitree_g1
Processing time: 11.96 seconds

STEP-BY-STEP TIMING:
  Step 1 - Load SMPLX:        1.34s
  Step 2 - Align FPS:         1.00s
  Step 3 - Init Retarget:     0.32s
  Step 4 - Init Visualization: 0.00s
  Step 5 - Process Frames:    8.95s (avg: 0.142s/frame)
  Step 6 - Convert Arrays:    0.00s
  Step 7 - Forward Kinematics: 0.28s
  Step 8 - Save Data:         0.00s
Status: SUCCESS
==================================================

=== SUCCESS LOG - 2025-10-14 15:26:44 ===
Input file: /data/retarget/locomotion/raw/AMASS_SMPLXG/WEIZMANN/69/Mixed_SlowFast(6)_stageii.npz
Output file: ../robot/ik_based/pkl/017012.pkl
Robot type: unitree_g1
Processing time: 11.68 seconds

STEP-BY-STEP TIMING:
  Step 1 - Load SMPLX:        1.07s
  Step 2 - Align FPS:         1.54s
  Step 3 - Init Retarget:     0.34s
  Step 4 - Init Visualization: 0.00s
  Step 5 - Process Frames:    8.37s (avg: 0.137s/frame)
  Step 6 - Convert Arrays:    0.00s
  Step 7 - Forward Kinematics: 0.19s
  Step 8 - Save Data:         0.00s
Status: SUCCESS
==================================================

=== SUCCESS LOG - 2025-10-14 15:26:44 ===
Input file: /data/retarget/locomotion/raw/AMASS_SMPLXG/WEIZMANN/69/Mixed_SlowFast(8)_stageii.npz
Output file: ../robot/ik_based/pkl/017014.pkl
Robot type: unitree_g1
Processing time: 11.77 seconds

STEP-BY-STEP TIMING:
  Step 1 - Load SMPLX:        1.15s
  Step 2 - Align FPS:         1.13s
  Step 3 - Init Retarget:     0.30s
  Step 4 - Init Visualization: 0.00s
  Step 5 - Process Frames:    8.61s (avg: 0.159s/frame)
  Step 6 - Convert Arrays:    0.00s
  Step 7 - Forward Kinematics: 0.38s
  Step 8 - Save Data:         0.00s
Status: SUCCESS
==================================================

=== SUCCESS LOG - 2025-10-14 15:26:45 ===
Input file: /data/retarget/locomotion/raw/AMASS_SMPLXG/WEIZMANN/69/Mixed_SlowFast(7)_stageii.npz
Output file: ../robot/ik_based/pkl/017013.pkl
Robot type: unitree_g1
Processing time: 12.88 seconds

STEP-BY-STEP TIMING:
  Step 1 - Load SMPLX:        1.06s
  Step 2 - Align FPS:         1.64s
  Step 3 - Init Retarget:     0.37s
  Step 4 - Init Visualization: 0.00s
  Step 5 - Process Frames:    9.70s (avg: 0.137s/frame)
  Step 6 - Convert Arrays:    0.00s
  Step 7 - Forward Kinematics: 0.04s
  Step 8 - Save Data:         0.00s
Status: SUCCESS
==================================================

=== SUCCESS LOG - 2025-10-14 15:27:03 ===
Input file: /data/retarget/locomotion/raw/AMASS_SMPLXG/WEIZMANN/69/Mixed_SlowFast(9)_stageii.npz
Output file: ../robot/ik_based/pkl/017015.pkl
Robot type: unitree_g1
Processing time: 18.70 seconds

STEP-BY-STEP TIMING:
  Step 1 - Load SMPLX:        1.68s
  Step 2 - Align FPS:         0.56s
  Step 3 - Init Retarget:     1.10s
  Step 4 - Init Visualization: 0.00s
  Step 5 - Process Frames:    14.56s (avg: 0.239s/frame)
  Step 6 - Convert Arrays:    0.00s
  Step 7 - Forward Kinematics: 0.50s
  Step 8 - Save Data:         0.01s
Status: SUCCESS
==================================================

=== SUCCESS LOG - 2025-10-14 15:30:08 ===
Input file: /data/retarget/locomotion/raw/AMASS_SMPLXG/WEIZMANN/69/Normal_AFig8CCW(2)_stageii.npz
Output file: ../robot/ik_based/pkl/017017.pkl
Robot type: unitree_g1
Processing time: 203.27 seconds

STEP-BY-STEP TIMING:
  Step 1 - Load SMPLX:        3.37s
  Step 2 - Align FPS:         20.08s
  Step 3 - Init Retarget:     0.51s
  Step 4 - Init Visualization: 0.00s
  Step 5 - Process Frames:    178.39s (avg: 0.124s/frame)
  Step 6 - Convert Arrays:    0.01s
  Step 7 - Forward Kinematics: 0.46s
  Step 8 - Save Data:         0.01s
Status: SUCCESS
==================================================

=== SUCCESS LOG - 2025-10-14 15:30:16 ===
Input file: /data/retarget/locomotion/raw/AMASS_SMPLXG/WEIZMANN/69/Normal_AFig8CCW(1)_stageii.npz
Output file: ../robot/ik_based/pkl/017016.pkl
Robot type: unitree_g1
Processing time: 211.82 seconds

STEP-BY-STEP TIMING:
  Step 1 - Load SMPLX:        3.61s
  Step 2 - Align FPS:         23.47s
  Step 3 - Init Retarget:     0.34s
  Step 4 - Init Visualization: 0.00s
  Step 5 - Process Frames:    183.00s (avg: 0.118s/frame)
  Step 6 - Convert Arrays:    0.01s
  Step 7 - Forward Kinematics: 0.46s
  Step 8 - Save Data:         0.01s
Status: SUCCESS
==================================================

=== SUCCESS LOG - 2025-10-14 15:30:42 ===
Input file: /data/retarget/locomotion/raw/AMASS_SMPLXG/WEIZMANN/69/Normal_AFig8CCW(3)_stageii.npz
Output file: ../robot/ik_based/pkl/017018.pkl
Robot type: unitree_g1
Processing time: 218.51 seconds

STEP-BY-STEP TIMING:
  Step 1 - Load SMPLX:        11.05s
  Step 2 - Align FPS:         19.93s
  Step 3 - Init Retarget:     0.30s
  Step 4 - Init Visualization: 0.00s
  Step 5 - Process Frames:    186.47s (avg: 0.119s/frame)
  Step 6 - Convert Arrays:    0.01s
  Step 7 - Forward Kinematics: 0.41s
  Step 8 - Save Data:         0.01s
Status: SUCCESS
==================================================

=== SUCCESS LOG - 2025-10-14 15:33:28 ===
Input file: /data/retarget/locomotion/raw/AMASS_SMPLXG/WEIZMANN/69/Normal_AFig8CW(1)_stageii.npz
Output file: ../robot/ik_based/pkl/017019.pkl
Robot type: unitree_g1
Processing time: 198.27 seconds

STEP-BY-STEP TIMING:
  Step 1 - Load SMPLX:        5.01s
  Step 2 - Align FPS:         13.94s
  Step 3 - Init Retarget:     0.98s
  Step 4 - Init Visualization: 0.00s
  Step 5 - Process Frames:    177.49s (avg: 0.114s/frame)
  Step 6 - Convert Arrays:    0.01s
  Step 7 - Forward Kinematics: 0.47s
  Step 8 - Save Data:         0.01s
Status: SUCCESS
==================================================

=== SUCCESS LOG - 2025-10-14 15:33:54 ===
Input file: /data/retarget/locomotion/raw/AMASS_SMPLXG/WEIZMANN/69/Normal_AFig8CW(2)_stageii.npz
Output file: ../robot/ik_based/pkl/017020.pkl
Robot type: unitree_g1
Processing time: 216.69 seconds

STEP-BY-STEP TIMING:
  Step 1 - Load SMPLX:        11.12s
  Step 2 - Align FPS:         17.58s
  Step 3 - Init Retarget:     0.31s
  Step 4 - Init Visualization: 0.00s
  Step 5 - Process Frames:    186.77s (avg: 0.118s/frame)
  Step 6 - Convert Arrays:    0.01s
  Step 7 - Forward Kinematics: 0.47s
  Step 8 - Save Data:         0.01s
Status: SUCCESS
==================================================

=== SUCCESS LOG - 2025-10-14 15:33:55 ===
Input file: /data/retarget/locomotion/raw/AMASS_SMPLXG/WEIZMANN/69/Normal_CircleCCW(1)_stageii.npz
Output file: ../robot/ik_based/pkl/017021.pkl
Robot type: unitree_g1
Processing time: 192.42 seconds

STEP-BY-STEP TIMING:
  Step 1 - Load SMPLX:        7.35s
  Step 2 - Align FPS:         22.14s
  Step 3 - Init Retarget:     0.31s
  Step 4 - Init Visualization: 0.00s
  Step 5 - Process Frames:    162.21s (avg: 0.110s/frame)
  Step 6 - Convert Arrays:    0.00s
  Step 7 - Forward Kinematics: 0.20s
  Step 8 - Save Data:         0.01s
Status: SUCCESS
==================================================

=== SUCCESS LOG - 2025-10-14 15:36:13 ===
Input file: /data/retarget/locomotion/raw/AMASS_SMPLXG/WEIZMANN/69/Normal_CircleCCW(2)_stageii.npz
Output file: ../robot/ik_based/pkl/017022.pkl
Robot type: unitree_g1
Processing time: 164.10 seconds

STEP-BY-STEP TIMING:
  Step 1 - Load SMPLX:        5.33s
  Step 2 - Align FPS:         17.61s
  Step 3 - Init Retarget:     0.57s
  Step 4 - Init Visualization: 0.00s
  Step 5 - Process Frames:    139.70s (avg: 0.116s/frame)
  Step 6 - Convert Arrays:    0.00s
  Step 7 - Forward Kinematics: 0.49s
  Step 8 - Save Data:         0.01s
Status: SUCCESS
==================================================

=== SUCCESS LOG - 2025-10-14 15:37:14 ===
Input file: /data/retarget/locomotion/raw/AMASS_SMPLXG/WEIZMANN/69/Normal_CircleCW(1)_stageii.npz
Output file: ../robot/ik_based/pkl/017023.pkl
Robot type: unitree_g1
Processing time: 199.33 seconds

STEP-BY-STEP TIMING:
  Step 1 - Load SMPLX:        4.71s
  Step 2 - Align FPS:         25.48s
  Step 3 - Init Retarget:     0.27s
  Step 4 - Init Visualization: 0.00s
  Step 5 - Process Frames:    168.11s (avg: 0.112s/frame)
  Step 6 - Convert Arrays:    0.00s
  Step 7 - Forward Kinematics: 0.39s
  Step 8 - Save Data:         0.02s
Status: SUCCESS
==================================================

=== SUCCESS LOG - 2025-10-14 15:37:27 ===
Input file: /data/retarget/locomotion/raw/AMASS_SMPLXG/WEIZMANN/69/Normal_CircleCW(2)_stageii.npz
Output file: ../robot/ik_based/pkl/017024.pkl
Robot type: unitree_g1
Processing time: 211.10 seconds

STEP-BY-STEP TIMING:
  Step 1 - Load SMPLX:        4.49s
  Step 2 - Align FPS:         29.56s
  Step 3 - Init Retarget:     0.36s
  Step 4 - Init Visualization: 0.00s
  Step 5 - Process Frames:    176.12s (avg: 0.115s/frame)
  Step 6 - Convert Arrays:    0.00s
  Step 7 - Forward Kinematics: 0.24s
  Step 8 - Save Data:         0.01s
Status: SUCCESS
==================================================

=== SUCCESS LOG - 2025-10-14 15:39:36 ===
Input file: /data/retarget/locomotion/raw/AMASS_SMPLXG/WEIZMANN/69/Normal_EllipseCCW(1)_stageii.npz
Output file: ../robot/ik_based/pkl/017025.pkl
Robot type: unitree_g1
Processing time: 202.30 seconds

STEP-BY-STEP TIMING:
  Step 1 - Load SMPLX:        5.53s
  Step 2 - Align FPS:         17.78s
  Step 3 - Init Retarget:     0.37s
  Step 4 - Init Visualization: 0.00s
  Step 5 - Process Frames:    177.74s (avg: 0.112s/frame)
  Step 6 - Convert Arrays:    0.00s
  Step 7 - Forward Kinematics: 0.49s
  Step 8 - Save Data:         0.01s
Status: SUCCESS
==================================================

=== SUCCESS LOG - 2025-10-14 15:40:32 ===
Input file: /data/retarget/locomotion/raw/AMASS_SMPLXG/WEIZMANN/69/Normal_EllipseCCW(3)_stageii.npz
Output file: ../robot/ik_based/pkl/017027.pkl
Robot type: unitree_g1
Processing time: 183.71 seconds

STEP-BY-STEP TIMING:
  Step 1 - Load SMPLX:        8.88s
  Step 2 - Align FPS:         17.35s
  Step 3 - Init Retarget:     0.30s
  Step 4 - Init Visualization: 0.00s
  Step 5 - Process Frames:    156.10s (avg: 0.113s/frame)
  Step 6 - Convert Arrays:    0.01s
  Step 7 - Forward Kinematics: 0.49s
  Step 8 - Save Data:         0.02s
Status: SUCCESS
==================================================

=== SUCCESS LOG - 2025-10-14 15:40:32 ===
Input file: /data/retarget/locomotion/raw/AMASS_SMPLXG/WEIZMANN/69/Normal_EllipseCCW(2)_stageii.npz
Output file: ../robot/ik_based/pkl/017026.pkl
Robot type: unitree_g1
Processing time: 197.22 seconds

STEP-BY-STEP TIMING:
  Step 1 - Load SMPLX:        5.39s
  Step 2 - Align FPS:         15.51s
  Step 3 - Init Retarget:     0.45s
  Step 4 - Init Visualization: 0.00s
  Step 5 - Process Frames:    175.62s (avg: 0.114s/frame)
  Step 6 - Convert Arrays:    0.00s
  Step 7 - Forward Kinematics: 0.12s
  Step 8 - Save Data:         0.01s
Status: SUCCESS
==================================================

=== SUCCESS LOG - 2025-10-14 15:42:51 ===
Input file: /data/retarget/locomotion/raw/AMASS_SMPLXG/WEIZMANN/69/Normal_EllipseCW(1)_stageii.npz
Output file: ../robot/ik_based/pkl/017028.pkl
Robot type: unitree_g1
Processing time: 193.99 seconds

STEP-BY-STEP TIMING:
  Step 1 - Load SMPLX:        4.50s
  Step 2 - Align FPS:         23.51s
  Step 3 - Init Retarget:     0.26s
  Step 4 - Init Visualization: 0.00s
  Step 5 - Process Frames:    164.90s (avg: 0.112s/frame)
  Step 6 - Convert Arrays:    0.00s
  Step 7 - Forward Kinematics: 0.37s
  Step 8 - Save Data:         0.01s
Status: SUCCESS
==================================================

=== SUCCESS LOG - 2025-10-14 15:43:27 ===
Input file: /data/retarget/locomotion/raw/AMASS_SMPLXG/WEIZMANN/69/Normal_EllipseCW(2)_stageii.npz
Output file: ../robot/ik_based/pkl/017029.pkl
Robot type: unitree_g1
Processing time: 173.96 seconds

STEP-BY-STEP TIMING:
  Step 1 - Load SMPLX:        4.82s
  Step 2 - Align FPS:         21.70s
  Step 3 - Init Retarget:     0.32s
  Step 4 - Init Visualization: 0.00s
  Step 5 - Process Frames:    146.02s (avg: 0.106s/frame)
  Step 6 - Convert Arrays:    0.00s
  Step 7 - Forward Kinematics: 0.66s
  Step 8 - Save Data:         0.01s
Status: SUCCESS
==================================================

=== SUCCESS LOG - 2025-10-14 15:43:32 ===
Input file: /data/retarget/locomotion/raw/AMASS_SMPLXG/WEIZMANN/69/Normal_Fig8(1)_stageii.npz
Output file: ../robot/ik_based/pkl/017030.pkl
Robot type: unitree_g1
Processing time: 178.82 seconds

STEP-BY-STEP TIMING:
  Step 1 - Load SMPLX:        4.62s
  Step 2 - Align FPS:         24.19s
  Step 3 - Init Retarget:     0.30s
  Step 4 - Init Visualization: 0.00s
  Step 5 - Process Frames:    149.42s (avg: 0.104s/frame)
  Step 6 - Convert Arrays:    0.00s
  Step 7 - Forward Kinematics: 0.13s
  Step 8 - Save Data:         0.01s
Status: SUCCESS
==================================================

=== SUCCESS LOG - 2025-10-14 15:46:08 ===
Input file: /data/retarget/locomotion/raw/AMASS_SMPLXG/WEIZMANN/69/Normal_Fig8(2)_stageii.npz
Output file: ../robot/ik_based/pkl/017031.pkl
Robot type: unitree_g1
Processing time: 195.96 seconds

STEP-BY-STEP TIMING:
  Step 1 - Load SMPLX:        5.34s
  Step 2 - Align FPS:         16.12s
  Step 3 - Init Retarget:     0.33s
  Step 4 - Init Visualization: 0.00s
  Step 5 - Process Frames:    173.04s (avg: 0.117s/frame)
  Step 6 - Convert Arrays:    0.00s
  Step 7 - Forward Kinematics: 0.60s
  Step 8 - Save Data:         0.01s
Status: SUCCESS
==================================================

=== SUCCESS LOG - 2025-10-14 15:46:54 ===
Input file: /data/retarget/locomotion/raw/AMASS_SMPLXG/WEIZMANN/69/Normal_Free(3)_stageii.npz
Output file: ../robot/ik_based/pkl/017032.pkl
Robot type: unitree_g1
Processing time: 206.20 seconds

STEP-BY-STEP TIMING:
  Step 1 - Load SMPLX:        6.18s
  Step 2 - Align FPS:         21.09s
  Step 3 - Init Retarget:     0.28s
  Step 4 - Init Visualization: 0.00s
  Step 5 - Process Frames:    177.90s (avg: 0.114s/frame)
  Step 6 - Convert Arrays:    0.01s
  Step 7 - Forward Kinematics: 0.37s
  Step 8 - Save Data:         0.01s
Status: SUCCESS
==================================================

=== SUCCESS LOG - 2025-10-14 15:47:05 ===
Input file: /data/retarget/locomotion/raw/AMASS_SMPLXG/WEIZMANN/69/Normal_Free(4)_stageii.npz
Output file: ../robot/ik_based/pkl/017033.pkl
Robot type: unitree_g1
Processing time: 211.71 seconds

STEP-BY-STEP TIMING:
  Step 1 - Load SMPLX:        4.70s
  Step 2 - Align FPS:         27.70s
  Step 3 - Init Retarget:     0.26s
  Step 4 - Init Visualization: 0.00s
  Step 5 - Process Frames:    177.67s (avg: 0.112s/frame)
  Step 6 - Convert Arrays:    0.01s
  Step 7 - Forward Kinematics: 0.95s
  Step 8 - Save Data:         0.01s
Status: SUCCESS
==================================================

=== SUCCESS LOG - 2025-10-14 15:49:37 ===
Input file: /data/retarget/locomotion/raw/AMASS_SMPLXG/WEIZMANN/69/Normal_Free(5)_stageii.npz
Output file: ../robot/ik_based/pkl/017034.pkl
Robot type: unitree_g1
Processing time: 208.25 seconds

STEP-BY-STEP TIMING:
  Step 1 - Load SMPLX:        5.31s
  Step 2 - Align FPS:         20.08s
  Step 3 - Init Retarget:     0.25s
  Step 4 - Init Visualization: 0.00s
  Step 5 - Process Frames:    182.00s (avg: 0.117s/frame)
  Step 6 - Convert Arrays:    0.00s
  Step 7 - Forward Kinematics: 0.34s
  Step 8 - Save Data:         0.01s
Status: SUCCESS
==================================================

=== SUCCESS LOG - 2025-10-14 15:49:54 ===
Input file: /data/retarget/locomotion/raw/AMASS_SMPLXG/WEIZMANN/69/Normal_SShapeLR(1)_stageii.npz
Output file: ../robot/ik_based/pkl/017037.pkl
Robot type: unitree_g1
Processing time: 15.79 seconds

STEP-BY-STEP TIMING:
  Step 1 - Load SMPLX:        3.45s
  Step 2 - Align FPS:         1.47s
  Step 3 - Init Retarget:     0.31s
  Step 4 - Init Visualization: 0.00s
  Step 5 - Process Frames:    9.92s (avg: 0.110s/frame)
  Step 6 - Convert Arrays:    0.00s
  Step 7 - Forward Kinematics: 0.27s
  Step 8 - Save Data:         0.01s
Status: SUCCESS
==================================================

=== SUCCESS LOG - 2025-10-14 15:50:20 ===
Input file: /data/retarget/locomotion/raw/AMASS_SMPLXG/WEIZMANN/69/Normal_SShapeLR(10)_stageii.npz
Output file: ../robot/ik_based/pkl/017038.pkl
Robot type: unitree_g1
Processing time: 25.54 seconds

STEP-BY-STEP TIMING:
  Step 1 - Load SMPLX:        3.72s
  Step 2 - Align FPS:         1.57s
  Step 3 - Init Retarget:     0.35s
  Step 4 - Init Visualization: 0.00s
  Step 5 - Process Frames:    19.07s (avg: 0.147s/frame)
  Step 6 - Convert Arrays:    0.00s
  Step 7 - Forward Kinematics: 0.46s
  Step 8 - Save Data:         0.01s
Status: SUCCESS
==================================================

=== SUCCESS LOG - 2025-10-14 15:50:23 ===
Input file: /data/retarget/locomotion/raw/AMASS_SMPLXG/WEIZMANN/69/Normal_Free(6)_stageii.npz
Output file: ../robot/ik_based/pkl/017035.pkl
Robot type: unitree_g1
Processing time: 208.48 seconds

STEP-BY-STEP TIMING:
  Step 1 - Load SMPLX:        5.90s
  Step 2 - Align FPS:         19.89s
  Step 3 - Init Retarget:     0.42s
  Step 4 - Init Visualization: 0.00s
  Step 5 - Process Frames:    181.89s (avg: 0.116s/frame)
  Step 6 - Convert Arrays:    0.01s
  Step 7 - Forward Kinematics: 0.18s
  Step 8 - Save Data:         0.01s
Status: SUCCESS
==================================================

=== SUCCESS LOG - 2025-10-14 15:50:44 ===
Input file: /data/retarget/locomotion/raw/AMASS_SMPLXG/WEIZMANN/69/Normal_SShapeLR(11)_stageii.npz
Output file: ../robot/ik_based/pkl/017039.pkl
Robot type: unitree_g1
Processing time: 24.09 seconds

STEP-BY-STEP TIMING:
  Step 1 - Load SMPLX:        4.34s
  Step 2 - Align FPS:         1.29s
  Step 3 - Init Retarget:     0.21s
  Step 4 - Init Visualization: 0.00s
  Step 5 - Process Frames:    17.44s (avg: 0.125s/frame)
  Step 6 - Convert Arrays:    0.00s
  Step 7 - Forward Kinematics: 0.40s
  Step 8 - Save Data:         0.01s
Status: SUCCESS
==================================================

=== SUCCESS LOG - 2025-10-14 15:50:50 ===
Input file: /data/retarget/locomotion/raw/AMASS_SMPLXG/WEIZMANN/69/Normal_SShapeLR(12)_stageii.npz
Output file: ../robot/ik_based/pkl/017040.pkl
Robot type: unitree_g1
Processing time: 25.62 seconds

STEP-BY-STEP TIMING:
  Step 1 - Load SMPLX:        3.76s
  Step 2 - Align FPS:         3.34s
  Step 3 - Init Retarget:     0.31s
  Step 4 - Init Visualization: 0.00s
  Step 5 - Process Frames:    17.22s (avg: 0.099s/frame)
  Step 6 - Convert Arrays:    0.00s
  Step 7 - Forward Kinematics: 0.57s
  Step 8 - Save Data:         0.00s
Status: SUCCESS
==================================================

=== SUCCESS LOG - 2025-10-14 15:51:08 ===
Input file: /data/retarget/locomotion/raw/AMASS_SMPLXG/WEIZMANN/69/Normal_SShapeLR(13)_stageii.npz
Output file: ../robot/ik_based/pkl/017041.pkl
Robot type: unitree_g1
Processing time: 23.89 seconds

STEP-BY-STEP TIMING:
  Step 1 - Load SMPLX:        3.12s
  Step 2 - Align FPS:         2.11s
  Step 3 - Init Retarget:     0.20s
  Step 4 - Init Visualization: 0.00s
  Step 5 - Process Frames:    17.78s (avg: 0.111s/frame)
  Step 6 - Convert Arrays:    0.00s
  Step 7 - Forward Kinematics: 0.32s
  Step 8 - Save Data:         0.01s
Status: SUCCESS
==================================================

=== SUCCESS LOG - 2025-10-14 15:51:13 ===
Input file: /data/retarget/locomotion/raw/AMASS_SMPLXG/WEIZMANN/69/Normal_SShapeLR(14)_stageii.npz
Output file: ../robot/ik_based/pkl/017042.pkl
Robot type: unitree_g1
Processing time: 23.09 seconds

STEP-BY-STEP TIMING:
  Step 1 - Load SMPLX:        3.66s
  Step 2 - Align FPS:         2.04s
  Step 3 - Init Retarget:     0.25s
  Step 4 - Init Visualization: 0.00s
  Step 5 - Process Frames:    16.79s (avg: 0.102s/frame)
  Step 6 - Convert Arrays:    0.00s
  Step 7 - Forward Kinematics: 0.17s
  Step 8 - Save Data:         0.00s
Status: SUCCESS
==================================================

=== SUCCESS LOG - 2025-10-14 15:51:32 ===
Input file: /data/retarget/locomotion/raw/AMASS_SMPLXG/WEIZMANN/69/Normal_SShapeLR(15)_stageii.npz
Output file: ../robot/ik_based/pkl/017043.pkl
Robot type: unitree_g1
Processing time: 23.11 seconds

STEP-BY-STEP TIMING:
  Step 1 - Load SMPLX:        4.12s
  Step 2 - Align FPS:         1.71s
  Step 3 - Init Retarget:     0.27s
  Step 4 - Init Visualization: 0.00s
  Step 5 - Process Frames:    16.14s (avg: 0.116s/frame)
  Step 6 - Convert Arrays:    0.00s
  Step 7 - Forward Kinematics: 0.45s
  Step 8 - Save Data:         0.01s
Status: SUCCESS
==================================================

=== SUCCESS LOG - 2025-10-14 15:51:52 ===
Input file: /data/retarget/locomotion/raw/AMASS_SMPLXG/WEIZMANN/69/Normal_SShapeLR(16)_stageii.npz
Output file: ../robot/ik_based/pkl/017044.pkl
Robot type: unitree_g1
Processing time: 38.36 seconds

STEP-BY-STEP TIMING:
  Step 1 - Load SMPLX:        3.79s
  Step 2 - Align FPS:         3.57s
  Step 3 - Init Retarget:     0.27s
  Step 4 - Init Visualization: 0.00s
  Step 5 - Process Frames:    29.87s (avg: 0.173s/frame)
  Step 6 - Convert Arrays:    0.00s
  Step 7 - Forward Kinematics: 0.47s
  Step 8 - Save Data:         0.01s
Status: SUCCESS
==================================================

=== SUCCESS LOG - 2025-10-14 15:51:56 ===
Input file: /data/retarget/locomotion/raw/AMASS_SMPLXG/WEIZMANN/69/Normal_SShapeLR(17)_stageii.npz
Output file: ../robot/ik_based/pkl/017045.pkl
Robot type: unitree_g1
Processing time: 23.47 seconds

STEP-BY-STEP TIMING:
  Step 1 - Load SMPLX:        4.16s
  Step 2 - Align FPS:         2.43s
  Step 3 - Init Retarget:     0.24s
  Step 4 - Init Visualization: 0.00s
  Step 5 - Process Frames:    16.30s (avg: 0.111s/frame)
  Step 6 - Convert Arrays:    0.00s
  Step 7 - Forward Kinematics: 0.17s
  Step 8 - Save Data:         0.00s
Status: SUCCESS
==================================================

=== SUCCESS LOG - 2025-10-14 15:52:12 ===
Input file: /data/retarget/locomotion/raw/AMASS_SMPLXG/WEIZMANN/69/Normal_Free(7)_stageii.npz
Output file: ../robot/ik_based/pkl/017036.pkl
Robot type: unitree_g1
Processing time: 306.40 seconds

STEP-BY-STEP TIMING:
  Step 1 - Load SMPLX:        6.74s
  Step 2 - Align FPS:         25.70s
  Step 3 - Init Retarget:     0.31s
  Step 4 - Init Visualization: 0.00s
  Step 5 - Process Frames:    272.83s (avg: 0.106s/frame)
  Step 6 - Convert Arrays:    0.01s
  Step 7 - Forward Kinematics: 0.40s
  Step 8 - Save Data:         0.02s
Status: SUCCESS
==================================================

=== SUCCESS LOG - 2025-10-14 15:52:13 ===
Input file: /data/retarget/locomotion/raw/AMASS_SMPLXG/WEIZMANN/69/Normal_SShapeLR(2)_stageii.npz
Output file: ../robot/ik_based/pkl/017047.pkl
Robot type: unitree_g1
Processing time: 17.48 seconds

STEP-BY-STEP TIMING:
  Step 1 - Load SMPLX:        3.60s
  Step 2 - Align FPS:         1.87s
  Step 3 - Init Retarget:     0.25s
  Step 4 - Init Visualization: 0.00s
  Step 5 - Process Frames:    11.54s (avg: 0.102s/frame)
  Step 6 - Convert Arrays:    0.00s
  Step 7 - Forward Kinematics: 0.12s
  Step 8 - Save Data:         0.00s
Status: SUCCESS
==================================================

=== SUCCESS LOG - 2025-10-14 15:52:15 ===
Input file: /data/retarget/locomotion/raw/AMASS_SMPLXG/WEIZMANN/69/Normal_SShapeLR(18)_stageii.npz
Output file: ../robot/ik_based/pkl/017046.pkl
Robot type: unitree_g1
Processing time: 23.09 seconds

STEP-BY-STEP TIMING:
  Step 1 - Load SMPLX:        3.84s
  Step 2 - Align FPS:         1.79s
  Step 3 - Init Retarget:     0.21s
  Step 4 - Init Visualization: 0.00s
  Step 5 - Process Frames:    17.17s (avg: 0.115s/frame)
  Step 6 - Convert Arrays:    0.00s
  Step 7 - Forward Kinematics: 0.04s
  Step 8 - Save Data:         0.00s
Status: SUCCESS
==================================================

=== SUCCESS LOG - 2025-10-14 15:52:31 ===
Input file: /data/retarget/locomotion/raw/AMASS_SMPLXG/WEIZMANN/69/Normal_SShapeLR(3)_stageii.npz
Output file: ../robot/ik_based/pkl/017048.pkl
Robot type: unitree_g1
Processing time: 16.72 seconds

STEP-BY-STEP TIMING:
  Step 1 - Load SMPLX:        1.95s
  Step 2 - Align FPS:         1.72s
  Step 3 - Init Retarget:     0.23s
  Step 4 - Init Visualization: 0.00s
  Step 5 - Process Frames:    12.06s (avg: 0.094s/frame)
  Step 6 - Convert Arrays:    0.00s
  Step 7 - Forward Kinematics: 0.38s
  Step 8 - Save Data:         0.00s
Status: SUCCESS
==================================================

=== SUCCESS LOG - 2025-10-14 15:52:31 ===
Input file: /data/retarget/locomotion/raw/AMASS_SMPLXG/WEIZMANN/69/Normal_SShapeLR(4)_stageii.npz
Output file: ../robot/ik_based/pkl/017049.pkl
Robot type: unitree_g1
Processing time: 17.00 seconds

STEP-BY-STEP TIMING:
  Step 1 - Load SMPLX:        1.83s
  Step 2 - Align FPS:         1.51s
  Step 3 - Init Retarget:     0.32s
  Step 4 - Init Visualization: 0.00s
  Step 5 - Process Frames:    12.97s (avg: 0.108s/frame)
  Step 6 - Convert Arrays:    0.00s
  Step 7 - Forward Kinematics: 0.18s
  Step 8 - Save Data:         0.01s
Status: SUCCESS
==================================================

=== SUCCESS LOG - 2025-10-14 15:52:32 ===
Input file: /data/retarget/locomotion/raw/AMASS_SMPLXG/WEIZMANN/69/Normal_SShapeLR(5)_stageii.npz
Output file: ../robot/ik_based/pkl/017050.pkl
Robot type: unitree_g1
Processing time: 16.16 seconds

STEP-BY-STEP TIMING:
  Step 1 - Load SMPLX:        3.70s
  Step 2 - Align FPS:         2.04s
  Step 3 - Init Retarget:     0.23s
  Step 4 - Init Visualization: 0.00s
  Step 5 - Process Frames:    10.11s (avg: 0.087s/frame)
  Step 6 - Convert Arrays:    0.00s
  Step 7 - Forward Kinematics: 0.04s
  Step 8 - Save Data:         0.00s
Status: SUCCESS
==================================================

=== SUCCESS LOG - 2025-10-14 15:52:43 ===
Input file: /data/retarget/locomotion/raw/AMASS_SMPLXG/WEIZMANN/69/Normal_SShapeLR(7)_stageii.npz
Output file: ../robot/ik_based/pkl/017052.pkl
Robot type: unitree_g1
Processing time: 11.45 seconds

STEP-BY-STEP TIMING:
  Step 1 - Load SMPLX:        1.26s
  Step 2 - Align FPS:         1.21s
  Step 3 - Init Retarget:     0.26s
  Step 4 - Init Visualization: 0.00s
  Step 5 - Process Frames:    7.85s (avg: 0.109s/frame)
  Step 6 - Convert Arrays:    0.00s
  Step 7 - Forward Kinematics: 0.41s
  Step 8 - Save Data:         0.01s
Status: SUCCESS
==================================================

=== SUCCESS LOG - 2025-10-14 15:52:44 ===
Input file: /data/retarget/locomotion/raw/AMASS_SMPLXG/WEIZMANN/69/Normal_SShapeLR(8)_stageii.npz
Output file: ../robot/ik_based/pkl/017053.pkl
Robot type: unitree_g1
Processing time: 11.94 seconds

STEP-BY-STEP TIMING:
  Step 1 - Load SMPLX:        1.41s
  Step 2 - Align FPS:         1.68s
  Step 3 - Init Retarget:     0.27s
  Step 4 - Init Visualization: 0.00s
  Step 5 - Process Frames:    8.22s (avg: 0.097s/frame)
  Step 6 - Convert Arrays:    0.00s
  Step 7 - Forward Kinematics: 0.18s
  Step 8 - Save Data:         0.00s
Status: SUCCESS
==================================================

=== SUCCESS LOG - 2025-10-14 15:52:44 ===
Input file: /data/retarget/locomotion/raw/AMASS_SMPLXG/WEIZMANN/69/Normal_SShapeLR(6)_stageii.npz
Output file: ../robot/ik_based/pkl/017051.pkl
Robot type: unitree_g1
Processing time: 13.22 seconds

STEP-BY-STEP TIMING:
  Step 1 - Load SMPLX:        1.52s
  Step 2 - Align FPS:         1.45s
  Step 3 - Init Retarget:     0.29s
  Step 4 - Init Visualization: 0.00s
  Step 5 - Process Frames:    9.87s (avg: 0.091s/frame)
  Step 6 - Convert Arrays:    0.00s
  Step 7 - Forward Kinematics: 0.04s
  Step 8 - Save Data:         0.00s
Status: SUCCESS
==================================================

=== SUCCESS LOG - 2025-10-14 15:53:00 ===
Input file: /data/retarget/locomotion/raw/AMASS_SMPLXG/WEIZMANN/69/Normal_SShapeLR(9)_stageii.npz
Output file: ../robot/ik_based/pkl/017054.pkl
Robot type: unitree_g1
Processing time: 17.49 seconds

STEP-BY-STEP TIMING:
  Step 1 - Load SMPLX:        1.82s
  Step 2 - Align FPS:         0.83s
  Step 3 - Init Retarget:     0.33s
  Step 4 - Init Visualization: 0.00s
  Step 5 - Process Frames:    13.73s (avg: 0.119s/frame)
  Step 6 - Convert Arrays:    0.00s
  Step 7 - Forward Kinematics: 0.38s
  Step 8 - Save Data:         0.01s
Status: SUCCESS
==================================================

=== SUCCESS LOG - 2025-10-14 15:53:01 ===
Input file: /data/retarget/locomotion/raw/AMASS_SMPLXG/WEIZMANN/69/Normal_SShapeRL(1)_stageii.npz
Output file: ../robot/ik_based/pkl/017055.pkl
Robot type: unitree_g1
Processing time: 17.04 seconds

STEP-BY-STEP TIMING:
  Step 1 - Load SMPLX:        1.34s
  Step 2 - Align FPS:         1.43s
  Step 3 - Init Retarget:     0.30s
  Step 4 - Init Visualization: 0.00s
  Step 5 - Process Frames:    13.59s (avg: 0.102s/frame)
  Step 6 - Convert Arrays:    0.00s
  Step 7 - Forward Kinematics: 0.21s
  Step 8 - Save Data:         0.00s
Status: SUCCESS
==================================================

=== SUCCESS LOG - 2025-10-14 15:53:02 ===
Input file: /data/retarget/locomotion/raw/AMASS_SMPLXG/WEIZMANN/69/Normal_SShapeRL(10)_stageii.npz
Output file: ../robot/ik_based/pkl/017056.pkl
Robot type: unitree_g1
Processing time: 17.61 seconds

STEP-BY-STEP TIMING:
  Step 1 - Load SMPLX:        1.74s
  Step 2 - Align FPS:         2.65s
  Step 3 - Init Retarget:     0.29s
  Step 4 - Init Visualization: 0.00s
  Step 5 - Process Frames:    12.82s (avg: 0.090s/frame)
  Step 6 - Convert Arrays:    0.00s
  Step 7 - Forward Kinematics: 0.06s
  Step 8 - Save Data:         0.00s
Status: SUCCESS
==================================================

=== SUCCESS LOG - 2025-10-14 15:53:21 ===
Input file: /data/retarget/locomotion/raw/AMASS_SMPLXG/WEIZMANN/69/Normal_SShapeRL(11)_stageii.npz
Output file: ../robot/ik_based/pkl/017057.pkl
Robot type: unitree_g1
Processing time: 20.32 seconds

STEP-BY-STEP TIMING:
  Step 1 - Load SMPLX:        1.95s
  Step 2 - Align FPS:         1.53s
  Step 3 - Init Retarget:     0.29s
  Step 4 - Init Visualization: 0.00s
  Step 5 - Process Frames:    15.66s (avg: 0.097s/frame)
  Step 6 - Convert Arrays:    0.00s
  Step 7 - Forward Kinematics: 0.49s
  Step 8 - Save Data:         0.01s
Status: SUCCESS
==================================================

=== SUCCESS LOG - 2025-10-14 15:53:22 ===
Input file: /data/retarget/locomotion/raw/AMASS_SMPLXG/WEIZMANN/69/Normal_SShapeRL(12)_stageii.npz
Output file: ../robot/ik_based/pkl/017058.pkl
Robot type: unitree_g1
Processing time: 21.18 seconds

STEP-BY-STEP TIMING:
  Step 1 - Load SMPLX:        1.78s
  Step 2 - Align FPS:         1.45s
  Step 3 - Init Retarget:     0.21s
  Step 4 - Init Visualization: 0.00s
  Step 5 - Process Frames:    17.35s (avg: 0.121s/frame)
  Step 6 - Convert Arrays:    0.00s
  Step 7 - Forward Kinematics: 0.20s
  Step 8 - Save Data:         0.00s
Status: SUCCESS
==================================================

=== SUCCESS LOG - 2025-10-14 15:53:28 ===
Input file: /data/retarget/locomotion/raw/AMASS_SMPLXG/WEIZMANN/69/Normal_SShapeRL(13)_stageii.npz
Output file: ../robot/ik_based/pkl/017059.pkl
Robot type: unitree_g1
Processing time: 26.09 seconds

STEP-BY-STEP TIMING:
  Step 1 - Load SMPLX:        3.05s
  Step 2 - Align FPS:         2.62s
  Step 3 - Init Retarget:     0.24s
  Step 4 - Init Visualization: 0.00s
  Step 5 - Process Frames:    19.33s (avg: 0.103s/frame)
  Step 6 - Convert Arrays:    0.00s
  Step 7 - Forward Kinematics: 0.51s
  Step 8 - Save Data:         0.01s
Status: SUCCESS
==================================================

=== SUCCESS LOG - 2025-10-14 15:53:42 ===
Input file: /data/retarget/locomotion/raw/AMASS_SMPLXG/WEIZMANN/69/Normal_SShapeRL(14)_stageii.npz
Output file: ../robot/ik_based/pkl/017060.pkl
Robot type: unitree_g1
Processing time: 21.02 seconds

STEP-BY-STEP TIMING:
  Step 1 - Load SMPLX:        2.68s
  Step 2 - Align FPS:         1.82s
  Step 3 - Init Retarget:     0.28s
  Step 4 - Init Visualization: 0.00s
  Step 5 - Process Frames:    15.66s (avg: 0.108s/frame)
  Step 6 - Convert Arrays:    0.00s
  Step 7 - Forward Kinematics: 0.28s
  Step 8 - Save Data:         0.01s
Status: SUCCESS
==================================================

=== SUCCESS LOG - 2025-10-14 15:53:45 ===
Input file: /data/retarget/locomotion/raw/AMASS_SMPLXG/WEIZMANN/69/Normal_SShapeRL(15)_stageii.npz
Output file: ../robot/ik_based/pkl/017061.pkl
Robot type: unitree_g1
Processing time: 22.67 seconds

STEP-BY-STEP TIMING:
  Step 1 - Load SMPLX:        2.70s
  Step 2 - Align FPS:         2.52s
  Step 3 - Init Retarget:     0.24s
  Step 4 - Init Visualization: 0.00s
  Step 5 - Process Frames:    16.87s (avg: 0.095s/frame)
  Step 6 - Convert Arrays:    0.00s
  Step 7 - Forward Kinematics: 0.19s
  Step 8 - Save Data:         0.00s
Status: SUCCESS
==================================================

=== SUCCESS LOG - 2025-10-14 15:53:50 ===
Input file: /data/retarget/locomotion/raw/AMASS_SMPLXG/WEIZMANN/69/Normal_SShapeRL(16)_stageii.npz
Output file: ../robot/ik_based/pkl/017062.pkl
Robot type: unitree_g1
Processing time: 21.87 seconds

STEP-BY-STEP TIMING:
  Step 1 - Load SMPLX:        3.99s
  Step 2 - Align FPS:         1.87s
  Step 3 - Init Retarget:     0.23s
  Step 4 - Init Visualization: 0.00s
  Step 5 - Process Frames:    15.05s (avg: 0.082s/frame)
  Step 6 - Convert Arrays:    0.00s
  Step 7 - Forward Kinematics: 0.43s
  Step 8 - Save Data:         0.01s
Status: SUCCESS
==================================================

=== SUCCESS LOG - 2025-10-14 15:54:11 ===
Input file: /data/retarget/locomotion/raw/AMASS_SMPLXG/WEIZMANN/69/Normal_SShapeRL(17)_stageii.npz
Output file: ../robot/ik_based/pkl/017063.pkl
Robot type: unitree_g1
Processing time: 28.54 seconds

STEP-BY-STEP TIMING:
  Step 1 - Load SMPLX:        3.68s
  Step 2 - Align FPS:         2.54s
  Step 3 - Init Retarget:     0.24s
  Step 4 - Init Visualization: 0.00s
  Step 5 - Process Frames:    21.38s (avg: 0.105s/frame)
  Step 6 - Convert Arrays:    0.00s
  Step 7 - Forward Kinematics: 0.39s
  Step 8 - Save Data:         0.01s
Status: SUCCESS
==================================================

=== SUCCESS LOG - 2025-10-14 15:54:11 ===
Input file: /data/retarget/locomotion/raw/AMASS_SMPLXG/WEIZMANN/69/Normal_SShapeRL(18)_stageii.npz
Output file: ../robot/ik_based/pkl/017064.pkl
Robot type: unitree_g1
Processing time: 25.79 seconds

STEP-BY-STEP TIMING:
  Step 1 - Load SMPLX:        3.69s
  Step 2 - Align FPS:         2.31s
  Step 3 - Init Retarget:     0.20s
  Step 4 - Init Visualization: 0.00s
  Step 5 - Process Frames:    19.19s (avg: 0.109s/frame)
  Step 6 - Convert Arrays:    0.00s
  Step 7 - Forward Kinematics: 0.27s
  Step 8 - Save Data:         0.01s
Status: SUCCESS
==================================================

=== SUCCESS LOG - 2025-10-14 15:54:12 ===
Input file: /data/retarget/locomotion/raw/AMASS_SMPLXG/WEIZMANN/69/Normal_SShapeRL(19)_stageii.npz
Output file: ../robot/ik_based/pkl/017065.pkl
Robot type: unitree_g1
Processing time: 21.88 seconds

STEP-BY-STEP TIMING:
  Step 1 - Load SMPLX:        3.61s
  Step 2 - Align FPS:         2.10s
  Step 3 - Init Retarget:     0.25s
  Step 4 - Init Visualization: 0.00s
  Step 5 - Process Frames:    15.83s (avg: 0.092s/frame)
  Step 6 - Convert Arrays:    0.00s
  Step 7 - Forward Kinematics: 0.04s
  Step 8 - Save Data:         0.00s
Status: SUCCESS
==================================================

=== SUCCESS LOG - 2025-10-14 15:54:28 ===
Input file: /data/retarget/locomotion/raw/AMASS_SMPLXG/WEIZMANN/69/Normal_SShapeRL(2)_stageii.npz
Output file: ../robot/ik_based/pkl/017066.pkl
Robot type: unitree_g1
Processing time: 16.85 seconds

STEP-BY-STEP TIMING:
  Step 1 - Load SMPLX:        1.77s
  Step 2 - Align FPS:         1.19s
  Step 3 - Init Retarget:     0.21s
  Step 4 - Init Visualization: 0.00s
  Step 5 - Process Frames:    13.02s (avg: 0.109s/frame)
  Step 6 - Convert Arrays:    0.00s
  Step 7 - Forward Kinematics: 0.33s
  Step 8 - Save Data:         0.00s
Status: SUCCESS
==================================================

=== SUCCESS LOG - 2025-10-14 15:54:35 ===
Input file: /data/retarget/locomotion/raw/AMASS_SMPLXG/WEIZMANN/69/Normal_SShapeRL(20)_stageii.npz
Output file: ../robot/ik_based/pkl/017067.pkl
Robot type: unitree_g1
Processing time: 24.01 seconds

STEP-BY-STEP TIMING:
  Step 1 - Load SMPLX:        1.87s
  Step 2 - Align FPS:         2.39s
  Step 3 - Init Retarget:     0.21s
  Step 4 - Init Visualization: 0.00s
  Step 5 - Process Frames:    19.07s (avg: 0.110s/frame)
  Step 6 - Convert Arrays:    0.00s
  Step 7 - Forward Kinematics: 0.24s
  Step 8 - Save Data:         0.00s
Status: SUCCESS
==================================================

=== SUCCESS LOG - 2025-10-14 15:54:38 ===
Input file: /data/retarget/locomotion/raw/AMASS_SMPLXG/WEIZMANN/69/Normal_SShapeRL(21)_stageii.npz
Output file: ../robot/ik_based/pkl/017068.pkl
Robot type: unitree_g1
Processing time: 25.73 seconds

STEP-BY-STEP TIMING:
  Step 1 - Load SMPLX:        3.39s
  Step 2 - Align FPS:         2.76s
  Step 3 - Init Retarget:     0.25s
  Step 4 - Init Visualization: 0.00s
  Step 5 - Process Frames:    18.97s (avg: 0.103s/frame)
  Step 6 - Convert Arrays:    0.00s
  Step 7 - Forward Kinematics: 0.19s
  Step 8 - Save Data:         0.00s
Status: SUCCESS
==================================================

=== SUCCESS LOG - 2025-10-14 15:54:41 ===
Input file: /data/retarget/locomotion/raw/AMASS_SMPLXG/WEIZMANN/69/Normal_SShapeRL(3)_stageii.npz
Output file: ../robot/ik_based/pkl/017069.pkl
Robot type: unitree_g1
Processing time: 12.57 seconds

STEP-BY-STEP TIMING:
  Step 1 - Load SMPLX:        3.91s
  Step 2 - Align FPS:         0.72s
  Step 3 - Init Retarget:     0.28s
  Step 4 - Init Visualization: 0.00s
  Step 5 - Process Frames:    7.32s (avg: 0.071s/frame)
  Step 6 - Convert Arrays:    0.00s
  Step 7 - Forward Kinematics: 0.17s
  Step 8 - Save Data:         0.00s
Status: SUCCESS
==================================================

=== SUCCESS LOG - 2025-10-14 15:54:54 ===
Input file: /data/retarget/locomotion/raw/AMASS_SMPLXG/WEIZMANN/69/Normal_SShapeRL(4)_stageii.npz
Output file: ../robot/ik_based/pkl/017070.pkl
Robot type: unitree_g1
Processing time: 18.79 seconds

STEP-BY-STEP TIMING:
  Step 1 - Load SMPLX:        3.10s
  Step 2 - Align FPS:         1.56s
  Step 3 - Init Retarget:     0.21s
  Step 4 - Init Visualization: 0.00s
  Step 5 - Process Frames:    13.01s (avg: 0.088s/frame)
  Step 6 - Convert Arrays:    0.00s
  Step 7 - Forward Kinematics: 0.46s
  Step 8 - Save Data:         0.01s
Status: SUCCESS
==================================================

=== SUCCESS LOG - 2025-10-14 15:54:55 ===
Input file: /data/retarget/locomotion/raw/AMASS_SMPLXG/WEIZMANN/69/Normal_SShapeRL(5)_stageii.npz
Output file: ../robot/ik_based/pkl/017071.pkl
Robot type: unitree_g1
Processing time: 16.70 seconds

STEP-BY-STEP TIMING:
  Step 1 - Load SMPLX:        3.14s
  Step 2 - Align FPS:         1.36s
  Step 3 - Init Retarget:     0.22s
  Step 4 - Init Visualization: 0.00s
  Step 5 - Process Frames:    11.61s (avg: 0.103s/frame)
  Step 6 - Convert Arrays:    0.00s
  Step 7 - Forward Kinematics: 0.21s
  Step 8 - Save Data:         0.00s
Status: SUCCESS
==================================================

=== SUCCESS LOG - 2025-10-14 15:55:01 ===
Input file: /data/retarget/locomotion/raw/AMASS_SMPLXG/WEIZMANN/69/Normal_SShapeRL(6)_stageii.npz
Output file: ../robot/ik_based/pkl/017072.pkl
Robot type: unitree_g1
Processing time: 19.74 seconds

STEP-BY-STEP TIMING:
  Step 1 - Load SMPLX:        3.00s
  Step 2 - Align FPS:         3.20s
  Step 3 - Init Retarget:     0.24s
  Step 4 - Init Visualization: 0.00s
  Step 5 - Process Frames:    12.53s (avg: 0.075s/frame)
  Step 6 - Convert Arrays:    0.00s
  Step 7 - Forward Kinematics: 0.40s
  Step 8 - Save Data:         0.01s
Status: SUCCESS
==================================================

=== SUCCESS LOG - 2025-10-14 15:55:07 ===
Input file: /data/retarget/locomotion/raw/AMASS_SMPLXG/WEIZMANN/69/Normal_SShapeRL(7)_stageii.npz
Output file: ../robot/ik_based/pkl/017073.pkl
Robot type: unitree_g1
Processing time: 12.77 seconds

STEP-BY-STEP TIMING:
  Step 1 - Load SMPLX:        2.36s
  Step 2 - Align FPS:         0.82s
  Step 3 - Init Retarget:     0.36s
  Step 4 - Init Visualization: 0.00s
  Step 5 - Process Frames:    8.63s (avg: 0.085s/frame)
  Step 6 - Convert Arrays:    0.00s
  Step 7 - Forward Kinematics: 0.31s
  Step 8 - Save Data:         0.01s
Status: SUCCESS
==================================================

=== SUCCESS LOG - 2025-10-14 15:55:15 ===
Input file: /data/retarget/locomotion/raw/AMASS_SMPLXG/WEIZMANN/69/Normal_SShapeRL(9)_stageii.npz
Output file: ../robot/ik_based/pkl/017075.pkl
Robot type: unitree_g1
Processing time: 13.59 seconds

STEP-BY-STEP TIMING:
  Step 1 - Load SMPLX:        3.82s
  Step 2 - Align FPS:         1.63s
  Step 3 - Init Retarget:     0.26s
  Step 4 - Init Visualization: 0.00s
  Step 5 - Process Frames:    7.31s (avg: 0.079s/frame)
  Step 6 - Convert Arrays:    0.00s
  Step 7 - Forward Kinematics: 0.26s
  Step 8 - Save Data:         0.01s
Status: SUCCESS
==================================================

=== SUCCESS LOG - 2025-10-14 15:55:15 ===
Input file: /data/retarget/locomotion/raw/AMASS_SMPLXG/WEIZMANN/69/Normal_SShapeRL(8)_stageii.npz
Output file: ../robot/ik_based/pkl/017074.pkl
Robot type: unitree_g1
Processing time: 19.63 seconds

STEP-BY-STEP TIMING:
  Step 1 - Load SMPLX:        2.55s
  Step 2 - Align FPS:         2.32s
  Step 3 - Init Retarget:     0.26s
  Step 4 - Init Visualization: 0.00s
  Step 5 - Process Frames:    14.05s (avg: 0.090s/frame)
  Step 6 - Convert Arrays:    0.00s
  Step 7 - Forward Kinematics: 0.28s
  Step 8 - Save Data:         0.00s
Status: SUCCESS
==================================================

=== SUCCESS LOG - 2025-10-14 15:55:16 ===
Input file: /data/retarget/locomotion/raw/AMASS_SMPLXG/WEIZMANN/69/Normal_StraightLong(1)_stageii.npz
Output file: ../robot/ik_based/pkl/017076.pkl
Robot type: unitree_g1
Processing time: 8.15 seconds

STEP-BY-STEP TIMING:
  Step 1 - Load SMPLX:        3.49s
  Step 2 - Align FPS:         0.69s
  Step 3 - Init Retarget:     0.25s
  Step 4 - Init Visualization: 0.00s
  Step 5 - Process Frames:    3.63s (avg: 0.076s/frame)
  Step 6 - Convert Arrays:    0.00s
  Step 7 - Forward Kinematics: 0.04s
  Step 8 - Save Data:         0.00s
Status: SUCCESS
==================================================

=== SUCCESS LOG - 2025-10-14 15:55:22 ===
Input file: /data/retarget/locomotion/raw/AMASS_SMPLXG/WEIZMANN/69/Normal_StraightLong(10)_stageii.npz
Output file: ../robot/ik_based/pkl/017077.pkl
Robot type: unitree_g1
Processing time: 7.61 seconds

STEP-BY-STEP TIMING:
  Step 1 - Load SMPLX:        1.45s
  Step 2 - Align FPS:         0.37s
  Step 3 - Init Retarget:     0.24s
  Step 4 - Init Visualization: 0.00s
  Step 5 - Process Frames:    4.99s (avg: 0.094s/frame)
  Step 6 - Convert Arrays:    0.00s
  Step 7 - Forward Kinematics: 0.29s
  Step 8 - Save Data:         0.01s
Status: SUCCESS
==================================================

=== SUCCESS LOG - 2025-10-14 15:55:23 ===
Input file: /data/retarget/locomotion/raw/AMASS_SMPLXG/WEIZMANN/69/Normal_StraightLong(11)_stageii.npz
Output file: ../robot/ik_based/pkl/017078.pkl
Robot type: unitree_g1
Processing time: 8.18 seconds

STEP-BY-STEP TIMING:
  Step 1 - Load SMPLX:        1.44s
  Step 2 - Align FPS:         0.45s
  Step 3 - Init Retarget:     0.24s
  Step 4 - Init Visualization: 0.00s
  Step 5 - Process Frames:    5.67s (avg: 0.109s/frame)
  Step 6 - Convert Arrays:    0.00s
  Step 7 - Forward Kinematics: 0.19s
  Step 8 - Save Data:         0.00s
Status: SUCCESS
==================================================

=== SUCCESS LOG - 2025-10-14 15:55:24 ===
Input file: /data/retarget/locomotion/raw/AMASS_SMPLXG/WEIZMANN/69/Normal_StraightLong(12)_stageii.npz
Output file: ../robot/ik_based/pkl/017079.pkl
Robot type: unitree_g1
Processing time: 7.71 seconds

STEP-BY-STEP TIMING:
  Step 1 - Load SMPLX:        1.51s
  Step 2 - Align FPS:         0.75s
  Step 3 - Init Retarget:     0.27s
  Step 4 - Init Visualization: 0.00s
  Step 5 - Process Frames:    5.02s (avg: 0.100s/frame)
  Step 6 - Convert Arrays:    0.00s
  Step 7 - Forward Kinematics: 0.09s
  Step 8 - Save Data:         0.00s
Status: SUCCESS
==================================================

=== SUCCESS LOG - 2025-10-14 15:55:31 ===
Input file: /data/retarget/locomotion/raw/AMASS_SMPLXG/WEIZMANN/69/Normal_StraightLong(13)_stageii.npz
Output file: ../robot/ik_based/pkl/017080.pkl
Robot type: unitree_g1
Processing time: 8.50 seconds

STEP-BY-STEP TIMING:
  Step 1 - Load SMPLX:        1.52s
  Step 2 - Align FPS:         0.39s
  Step 3 - Init Retarget:     0.27s
  Step 4 - Init Visualization: 0.00s
  Step 5 - Process Frames:    5.30s (avg: 0.110s/frame)
  Step 6 - Convert Arrays:    0.00s
  Step 7 - Forward Kinematics: 0.81s
  Step 8 - Save Data:         0.00s
Status: SUCCESS
==================================================

=== SUCCESS LOG - 2025-10-14 15:55:31 ===
Input file: /data/retarget/locomotion/raw/AMASS_SMPLXG/WEIZMANN/69/Normal_StraightLong(14)_stageii.npz
Output file: ../robot/ik_based/pkl/017081.pkl
Robot type: unitree_g1
Processing time: 7.78 seconds

STEP-BY-STEP TIMING:
  Step 1 - Load SMPLX:        1.19s
  Step 2 - Align FPS:         0.66s
  Step 3 - Init Retarget:     0.29s
  Step 4 - Init Visualization: 0.00s
  Step 5 - Process Frames:    5.42s (avg: 0.087s/frame)
  Step 6 - Convert Arrays:    0.00s
  Step 7 - Forward Kinematics: 0.12s
  Step 8 - Save Data:         0.00s
Status: SUCCESS
==================================================

=== SUCCESS LOG - 2025-10-14 15:55:31 ===
Input file: /data/retarget/locomotion/raw/AMASS_SMPLXG/WEIZMANN/69/Normal_StraightLong(15)_stageii.npz
Output file: ../robot/ik_based/pkl/017082.pkl
Robot type: unitree_g1
Processing time: 7.64 seconds

STEP-BY-STEP TIMING:
  Step 1 - Load SMPLX:        1.35s
  Step 2 - Align FPS:         0.74s
  Step 3 - Init Retarget:     0.23s
  Step 4 - Init Visualization: 0.00s
  Step 5 - Process Frames:    5.10s (avg: 0.093s/frame)
  Step 6 - Convert Arrays:    0.00s
  Step 7 - Forward Kinematics: 0.14s
  Step 8 - Save Data:         0.00s
Status: SUCCESS
==================================================

=== SUCCESS LOG - 2025-10-14 15:55:39 ===
Input file: /data/retarget/locomotion/raw/AMASS_SMPLXG/WEIZMANN/69/Normal_StraightLong(16)_stageii.npz
Output file: ../robot/ik_based/pkl/017083.pkl
Robot type: unitree_g1
Processing time: 7.65 seconds

STEP-BY-STEP TIMING:
  Step 1 - Load SMPLX:        0.97s
  Step 2 - Align FPS:         0.58s
  Step 3 - Init Retarget:     0.27s
  Step 4 - Init Visualization: 0.00s
  Step 5 - Process Frames:    5.07s (avg: 0.110s/frame)
  Step 6 - Convert Arrays:    0.00s
  Step 7 - Forward Kinematics: 0.44s
  Step 8 - Save Data:         0.00s
Status: SUCCESS
==================================================

=== SUCCESS LOG - 2025-10-14 15:55:39 ===
Input file: /data/retarget/locomotion/raw/AMASS_SMPLXG/WEIZMANN/69/Normal_StraightLong(18)_stageii.npz
Output file: ../robot/ik_based/pkl/017085.pkl
Robot type: unitree_g1
Processing time: 7.59 seconds

STEP-BY-STEP TIMING:
  Step 1 - Load SMPLX:        0.90s
  Step 2 - Align FPS:         1.03s
  Step 3 - Init Retarget:     0.25s
  Step 4 - Init Visualization: 0.00s
  Step 5 - Process Frames:    5.08s (avg: 0.110s/frame)
  Step 6 - Convert Arrays:    0.00s
  Step 7 - Forward Kinematics: 0.23s
  Step 8 - Save Data:         0.00s
Status: SUCCESS
==================================================

=== SUCCESS LOG - 2025-10-14 15:55:39 ===
Input file: /data/retarget/locomotion/raw/AMASS_SMPLXG/WEIZMANN/69/Normal_StraightLong(17)_stageii.npz
Output file: ../robot/ik_based/pkl/017084.pkl
Robot type: unitree_g1
Processing time: 7.70 seconds

STEP-BY-STEP TIMING:
  Step 1 - Load SMPLX:        0.95s
  Step 2 - Align FPS:         0.86s
  Step 3 - Init Retarget:     0.22s
  Step 4 - Init Visualization: 0.00s
  Step 5 - Process Frames:    5.38s (avg: 0.114s/frame)
  Step 6 - Convert Arrays:    0.00s
  Step 7 - Forward Kinematics: 0.16s
  Step 8 - Save Data:         0.00s
Status: SUCCESS
==================================================

=== SUCCESS LOG - 2025-10-14 15:55:46 ===
Input file: /data/retarget/locomotion/raw/AMASS_SMPLXG/WEIZMANN/69/Normal_StraightLong(19)_stageii.npz
Output file: ../robot/ik_based/pkl/017086.pkl
Robot type: unitree_g1
Processing time: 7.39 seconds

STEP-BY-STEP TIMING:
  Step 1 - Load SMPLX:        0.98s
  Step 2 - Align FPS:         0.40s
  Step 3 - Init Retarget:     0.38s
  Step 4 - Init Visualization: 0.00s
  Step 5 - Process Frames:    5.15s (avg: 0.123s/frame)
  Step 6 - Convert Arrays:    0.00s
  Step 7 - Forward Kinematics: 0.34s
  Step 8 - Save Data:         0.00s
Status: SUCCESS
==================================================

=== SUCCESS LOG - 2025-10-14 15:55:47 ===
Input file: /data/retarget/locomotion/raw/AMASS_SMPLXG/WEIZMANN/69/Normal_StraightLong(20)_stageii.npz
Output file: ../robot/ik_based/pkl/017088.pkl
Robot type: unitree_g1
Processing time: 7.24 seconds

STEP-BY-STEP TIMING:
  Step 1 - Load SMPLX:        1.15s
  Step 2 - Align FPS:         0.72s
  Step 3 - Init Retarget:     0.27s
  Step 4 - Init Visualization: 0.00s
  Step 5 - Process Frames:    4.77s (avg: 0.108s/frame)
  Step 6 - Convert Arrays:    0.00s
  Step 7 - Forward Kinematics: 0.16s
  Step 8 - Save Data:         0.00s
Status: SUCCESS
==================================================

=== SUCCESS LOG - 2025-10-14 15:55:47 ===
Input file: /data/retarget/locomotion/raw/AMASS_SMPLXG/WEIZMANN/69/Normal_StraightLong(2)_stageii.npz
Output file: ../robot/ik_based/pkl/017087.pkl
Robot type: unitree_g1
Processing time: 7.37 seconds

STEP-BY-STEP TIMING:
  Step 1 - Load SMPLX:        1.01s
  Step 2 - Align FPS:         0.81s
  Step 3 - Init Retarget:     0.22s
  Step 4 - Init Visualization: 0.00s
  Step 5 - Process Frames:    5.00s (avg: 0.104s/frame)
  Step 6 - Convert Arrays:    0.00s
  Step 7 - Forward Kinematics: 0.10s
  Step 8 - Save Data:         0.00s
Status: SUCCESS
==================================================

=== SUCCESS LOG - 2025-10-14 15:55:54 ===
Input file: /data/retarget/locomotion/raw/AMASS_SMPLXG/WEIZMANN/69/Normal_StraightLong(22)_stageii.npz
Output file: ../robot/ik_based/pkl/017090.pkl
Robot type: unitree_g1
Processing time: 7.30 seconds

STEP-BY-STEP TIMING:
  Step 1 - Load SMPLX:        0.87s
  Step 2 - Align FPS:         0.56s
  Step 3 - Init Retarget:     0.41s
  Step 4 - Init Visualization: 0.00s
  Step 5 - Process Frames:    4.72s (avg: 0.115s/frame)
  Step 6 - Convert Arrays:    0.00s
  Step 7 - Forward Kinematics: 0.49s
  Step 8 - Save Data:         0.00s
Status: SUCCESS
==================================================

=== SUCCESS LOG - 2025-10-14 15:55:54 ===
Input file: /data/retarget/locomotion/raw/AMASS_SMPLXG/WEIZMANN/69/Normal_StraightLong(23)_stageii.npz
Output file: ../robot/ik_based/pkl/017091.pkl
Robot type: unitree_g1
Processing time: 7.39 seconds

STEP-BY-STEP TIMING:
  Step 1 - Load SMPLX:        0.95s
  Step 2 - Align FPS:         0.83s
  Step 3 - Init Retarget:     0.27s
  Step 4 - Init Visualization: 0.00s
  Step 5 - Process Frames:    5.10s (avg: 0.113s/frame)
  Step 6 - Convert Arrays:    0.00s
  Step 7 - Forward Kinematics: 0.16s
  Step 8 - Save Data:         0.00s
Status: SUCCESS
==================================================

=== SUCCESS LOG - 2025-10-14 15:55:54 ===
Input file: /data/retarget/locomotion/raw/AMASS_SMPLXG/WEIZMANN/69/Normal_StraightLong(21)_stageii.npz
Output file: ../robot/ik_based/pkl/017089.pkl
Robot type: unitree_g1
Processing time: 7.68 seconds

STEP-BY-STEP TIMING:
  Step 1 - Load SMPLX:        1.03s
  Step 2 - Align FPS:         0.83s
  Step 3 - Init Retarget:     0.22s
  Step 4 - Init Visualization: 0.00s
  Step 5 - Process Frames:    5.36s (avg: 0.097s/frame)
  Step 6 - Convert Arrays:    0.00s
  Step 7 - Forward Kinematics: 0.11s
  Step 8 - Save Data:         0.00s
Status: SUCCESS
==================================================

=== SUCCESS LOG - 2025-10-14 15:56:01 ===
Input file: /data/retarget/locomotion/raw/AMASS_SMPLXG/WEIZMANN/69/Normal_StraightLong(24)_stageii.npz
Output file: ../robot/ik_based/pkl/017092.pkl
Robot type: unitree_g1
Processing time: 6.85 seconds

STEP-BY-STEP TIMING:
  Step 1 - Load SMPLX:        0.99s
  Step 2 - Align FPS:         0.53s
  Step 3 - Init Retarget:     0.33s
  Step 4 - Init Visualization: 0.00s
  Step 5 - Process Frames:    4.20s (avg: 0.102s/frame)
  Step 6 - Convert Arrays:    0.00s
  Step 7 - Forward Kinematics: 0.38s
  Step 8 - Save Data:         0.01s
Status: SUCCESS
==================================================

=== SUCCESS LOG - 2025-10-14 15:56:02 ===
Input file: /data/retarget/locomotion/raw/AMASS_SMPLXG/WEIZMANN/69/Normal_StraightLong(26)_stageii.npz
Output file: ../robot/ik_based/pkl/017094.pkl
Robot type: unitree_g1
Processing time: 7.38 seconds

STEP-BY-STEP TIMING:
  Step 1 - Load SMPLX:        1.02s
  Step 2 - Align FPS:         0.90s
  Step 3 - Init Retarget:     0.25s
  Step 4 - Init Visualization: 0.00s
  Step 5 - Process Frames:    4.96s (avg: 0.106s/frame)
  Step 6 - Convert Arrays:    0.01s
  Step 7 - Forward Kinematics: 0.18s
  Step 8 - Save Data:         0.00s
Status: SUCCESS
==================================================

=== SUCCESS LOG - 2025-10-14 15:56:02 ===
Input file: /data/retarget/locomotion/raw/AMASS_SMPLXG/WEIZMANN/69/Normal_StraightLong(25)_stageii.npz
Output file: ../robot/ik_based/pkl/017093.pkl
Robot type: unitree_g1
Processing time: 7.50 seconds

STEP-BY-STEP TIMING:
  Step 1 - Load SMPLX:        0.93s
  Step 2 - Align FPS:         0.89s
  Step 3 - Init Retarget:     0.22s
  Step 4 - Init Visualization: 0.00s
  Step 5 - Process Frames:    5.28s (avg: 0.108s/frame)
  Step 6 - Convert Arrays:    0.00s
  Step 7 - Forward Kinematics: 0.06s
  Step 8 - Save Data:         0.00s
Status: SUCCESS
==================================================

=== SUCCESS LOG - 2025-10-14 15:56:09 ===
Input file: /data/retarget/locomotion/raw/AMASS_SMPLXG/WEIZMANN/69/Normal_StraightLong(27)_stageii.npz
Output file: ../robot/ik_based/pkl/017095.pkl
Robot type: unitree_g1
Processing time: 8.07 seconds

STEP-BY-STEP TIMING:
  Step 1 - Load SMPLX:        1.42s
  Step 2 - Align FPS:         0.32s
  Step 3 - Init Retarget:     0.35s
  Step 4 - Init Visualization: 0.00s
  Step 5 - Process Frames:    5.46s (avg: 0.130s/frame)
  Step 6 - Convert Arrays:    0.00s
  Step 7 - Forward Kinematics: 0.27s
  Step 8 - Save Data:         0.01s
Status: SUCCESS
==================================================

=== SUCCESS LOG - 2025-10-14 15:56:10 ===
Input file: /data/retarget/locomotion/raw/AMASS_SMPLXG/WEIZMANN/69/Normal_StraightLong(29)_stageii.npz
Output file: ../robot/ik_based/pkl/017097.pkl
Robot type: unitree_g1
Processing time: 8.16 seconds

STEP-BY-STEP TIMING:
  Step 1 - Load SMPLX:        1.15s
  Step 2 - Align FPS:         0.85s
  Step 3 - Init Retarget:     0.23s
  Step 4 - Init Visualization: 0.00s
  Step 5 - Process Frames:    5.50s (avg: 0.110s/frame)
  Step 6 - Convert Arrays:    0.00s
  Step 7 - Forward Kinematics: 0.25s
  Step 8 - Save Data:         0.00s
Status: SUCCESS
==================================================

=== SUCCESS LOG - 2025-10-14 15:56:10 ===
Input file: /data/retarget/locomotion/raw/AMASS_SMPLXG/WEIZMANN/69/Normal_StraightLong(28)_stageii.npz
Output file: ../robot/ik_based/pkl/017096.pkl
Robot type: unitree_g1
Processing time: 8.33 seconds

STEP-BY-STEP TIMING:
  Step 1 - Load SMPLX:        1.18s
  Step 2 - Align FPS:         1.02s
  Step 3 - Init Retarget:     0.24s
  Step 4 - Init Visualization: 0.00s
  Step 5 - Process Frames:    5.73s (avg: 0.099s/frame)
  Step 6 - Convert Arrays:    0.00s
  Step 7 - Forward Kinematics: 0.11s
  Step 8 - Save Data:         0.00s
Status: SUCCESS
==================================================

=== SUCCESS LOG - 2025-10-14 15:56:18 ===
Input file: /data/retarget/locomotion/raw/AMASS_SMPLXG/WEIZMANN/69/Normal_StraightLong(3)_stageii.npz
Output file: ../robot/ik_based/pkl/017098.pkl
Robot type: unitree_g1
Processing time: 8.62 seconds

STEP-BY-STEP TIMING:
  Step 1 - Load SMPLX:        1.51s
  Step 2 - Align FPS:         0.39s
  Step 3 - Init Retarget:     0.23s
  Step 4 - Init Visualization: 0.00s
  Step 5 - Process Frames:    5.80s (avg: 0.105s/frame)
  Step 6 - Convert Arrays:    0.00s
  Step 7 - Forward Kinematics: 0.49s
  Step 8 - Save Data:         0.00s
Status: SUCCESS
==================================================

=== SUCCESS LOG - 2025-10-14 15:56:18 ===
Input file: /data/retarget/locomotion/raw/AMASS_SMPLXG/WEIZMANN/69/Normal_StraightLong(30)_stageii.npz
Output file: ../robot/ik_based/pkl/017099.pkl
Robot type: unitree_g1
Processing time: 7.93 seconds

STEP-BY-STEP TIMING:
  Step 1 - Load SMPLX:        1.28s
  Step 2 - Align FPS:         0.50s
  Step 3 - Init Retarget:     0.26s
  Step 4 - Init Visualization: 0.00s
  Step 5 - Process Frames:    5.66s (avg: 0.115s/frame)
  Step 6 - Convert Arrays:    0.00s
  Step 7 - Forward Kinematics: 0.15s
  Step 8 - Save Data:         0.00s
Status: SUCCESS
==================================================

=== SUCCESS LOG - 2025-10-14 15:56:18 ===
Input file: /data/retarget/locomotion/raw/AMASS_SMPLXG/WEIZMANN/69/Normal_StraightLong(31)_stageii.npz
Output file: ../robot/ik_based/pkl/017100.pkl
Robot type: unitree_g1
Processing time: 7.83 seconds

STEP-BY-STEP TIMING:
  Step 1 - Load SMPLX:        1.63s
  Step 2 - Align FPS:         0.66s
  Step 3 - Init Retarget:     0.24s
  Step 4 - Init Visualization: 0.00s
  Step 5 - Process Frames:    4.95s (avg: 0.115s/frame)
  Step 6 - Convert Arrays:    0.00s
  Step 7 - Forward Kinematics: 0.20s
  Step 8 - Save Data:         0.06s
Status: SUCCESS
==================================================

=== SUCCESS LOG - 2025-10-14 15:56:25 ===
Input file: /data/retarget/locomotion/raw/AMASS_SMPLXG/WEIZMANN/69/Normal_StraightLong(32)_stageii.npz
Output file: ../robot/ik_based/pkl/017101.pkl
Robot type: unitree_g1
Processing time: 6.98 seconds

STEP-BY-STEP TIMING:
  Step 1 - Load SMPLX:        1.05s
  Step 2 - Align FPS:         0.99s
  Step 3 - Init Retarget:     0.19s
  Step 4 - Init Visualization: 0.00s
  Step 5 - Process Frames:    4.20s (avg: 0.084s/frame)
  Step 6 - Convert Arrays:    0.00s
  Step 7 - Forward Kinematics: 0.42s
  Step 8 - Save Data:         0.00s
Status: SUCCESS
==================================================

=== SUCCESS LOG - 2025-10-14 15:56:25 ===
Input file: /data/retarget/locomotion/raw/AMASS_SMPLXG/WEIZMANN/69/Normal_StraightLong(33)_stageii.npz
Output file: ../robot/ik_based/pkl/017102.pkl
Robot type: unitree_g1
Processing time: 6.91 seconds

STEP-BY-STEP TIMING:
  Step 1 - Load SMPLX:        0.90s
  Step 2 - Align FPS:         1.01s
  Step 3 - Init Retarget:     0.22s
  Step 4 - Init Visualization: 0.00s
  Step 5 - Process Frames:    4.53s (avg: 0.105s/frame)
  Step 6 - Convert Arrays:    0.00s
  Step 7 - Forward Kinematics: 0.15s
  Step 8 - Save Data:         0.00s
Status: SUCCESS
==================================================

=== SUCCESS LOG - 2025-10-14 15:56:25 ===
Input file: /data/retarget/locomotion/raw/AMASS_SMPLXG/WEIZMANN/69/Normal_StraightLong(34)_stageii.npz
Output file: ../robot/ik_based/pkl/017103.pkl
Robot type: unitree_g1
Processing time: 6.96 seconds

STEP-BY-STEP TIMING:
  Step 1 - Load SMPLX:        0.85s
  Step 2 - Align FPS:         0.84s
  Step 3 - Init Retarget:     0.23s
  Step 4 - Init Visualization: 0.00s
  Step 5 - Process Frames:    4.67s (avg: 0.106s/frame)
  Step 6 - Convert Arrays:    0.00s
  Step 7 - Forward Kinematics: 0.14s
  Step 8 - Save Data:         0.00s
Status: SUCCESS
==================================================

=== SUCCESS LOG - 2025-10-14 15:56:33 ===
Input file: /data/retarget/locomotion/raw/AMASS_SMPLXG/WEIZMANN/69/Normal_StraightLong(35)_stageii.npz
Output file: ../robot/ik_based/pkl/017104.pkl
Robot type: unitree_g1
Processing time: 7.75 seconds

STEP-BY-STEP TIMING:
  Step 1 - Load SMPLX:        1.02s
  Step 2 - Align FPS:         0.69s
  Step 3 - Init Retarget:     0.41s
  Step 4 - Init Visualization: 0.00s
  Step 5 - Process Frames:    5.05s (avg: 0.101s/frame)
  Step 6 - Convert Arrays:    0.00s
  Step 7 - Forward Kinematics: 0.34s
  Step 8 - Save Data:         0.00s
Status: SUCCESS
==================================================

=== SUCCESS LOG - 2025-10-14 15:56:33 ===
Input file: /data/retarget/locomotion/raw/AMASS_SMPLXG/WEIZMANN/69/Normal_StraightLong(37)_stageii.npz
Output file: ../robot/ik_based/pkl/017106.pkl
Robot type: unitree_g1
Processing time: 7.70 seconds

STEP-BY-STEP TIMING:
  Step 1 - Load SMPLX:        0.92s
  Step 2 - Align FPS:         0.88s
  Step 3 - Init Retarget:     0.31s
  Step 4 - Init Visualization: 0.00s
  Step 5 - Process Frames:    5.26s (avg: 0.110s/frame)
  Step 6 - Convert Arrays:    0.00s
  Step 7 - Forward Kinematics: 0.17s
  Step 8 - Save Data:         0.00s
Status: SUCCESS
==================================================

=== SUCCESS LOG - 2025-10-14 15:56:33 ===
Input file: /data/retarget/locomotion/raw/AMASS_SMPLXG/WEIZMANN/69/Normal_StraightLong(36)_stageii.npz
Output file: ../robot/ik_based/pkl/017105.pkl
Robot type: unitree_g1
Processing time: 7.80 seconds

STEP-BY-STEP TIMING:
  Step 1 - Load SMPLX:        0.95s
  Step 2 - Align FPS:         0.97s
  Step 3 - Init Retarget:     0.32s
  Step 4 - Init Visualization: 0.00s
  Step 5 - Process Frames:    5.28s (avg: 0.123s/frame)
  Step 6 - Convert Arrays:    0.00s
  Step 7 - Forward Kinematics: 0.14s
  Step 8 - Save Data:         0.00s
Status: SUCCESS
==================================================

=== SUCCESS LOG - 2025-10-14 15:56:41 ===
Input file: /data/retarget/locomotion/raw/AMASS_SMPLXG/WEIZMANN/69/Normal_StraightLong(4)_stageii.npz
Output file: ../robot/ik_based/pkl/017109.pkl
Robot type: unitree_g1
Processing time: 8.14 seconds

STEP-BY-STEP TIMING:
  Step 1 - Load SMPLX:        0.96s
  Step 2 - Align FPS:         0.78s
  Step 3 - Init Retarget:     0.20s
  Step 4 - Init Visualization: 0.00s
  Step 5 - Process Frames:    5.58s (avg: 0.124s/frame)
  Step 6 - Convert Arrays:    0.00s
  Step 7 - Forward Kinematics: 0.36s
  Step 8 - Save Data:         0.00s
Status: SUCCESS
==================================================

=== SUCCESS LOG - 2025-10-14 15:56:42 ===
Input file: /data/retarget/locomotion/raw/AMASS_SMPLXG/WEIZMANN/69/Normal_StraightLong(38)_stageii.npz
Output file: ../robot/ik_based/pkl/017107.pkl
Robot type: unitree_g1
Processing time: 8.64 seconds

STEP-BY-STEP TIMING:
  Step 1 - Load SMPLX:        0.98s
  Step 2 - Align FPS:         0.40s
  Step 3 - Init Retarget:     0.24s
  Step 4 - Init Visualization: 0.00s
  Step 5 - Process Frames:    6.61s (avg: 0.144s/frame)
  Step 6 - Convert Arrays:    0.00s
  Step 7 - Forward Kinematics: 0.25s
  Step 8 - Save Data:         0.00s
Status: SUCCESS
==================================================

=== SUCCESS LOG - 2025-10-14 15:56:42 ===
Input file: /data/retarget/locomotion/raw/AMASS_SMPLXG/WEIZMANN/69/Normal_StraightLong(39)_stageii.npz
Output file: ../robot/ik_based/pkl/017108.pkl
Robot type: unitree_g1
Processing time: 8.53 seconds

STEP-BY-STEP TIMING:
  Step 1 - Load SMPLX:        0.99s
  Step 2 - Align FPS:         0.91s
  Step 3 - Init Retarget:     0.24s
  Step 4 - Init Visualization: 0.00s
  Step 5 - Process Frames:    6.20s (avg: 0.129s/frame)
  Step 6 - Convert Arrays:    0.00s
  Step 7 - Forward Kinematics: 0.10s
  Step 8 - Save Data:         0.00s
Status: SUCCESS
==================================================

=== SUCCESS LOG - 2025-10-14 15:56:49 ===
Input file: /data/retarget/locomotion/raw/AMASS_SMPLXG/WEIZMANN/69/Normal_StraightLong(42)_stageii.npz
Output file: ../robot/ik_based/pkl/017112.pkl
Robot type: unitree_g1
Processing time: 6.66 seconds

STEP-BY-STEP TIMING:
  Step 1 - Load SMPLX:        1.20s
  Step 2 - Align FPS:         0.48s
  Step 3 - Init Retarget:     0.24s
  Step 4 - Init Visualization: 0.00s
  Step 5 - Process Frames:    4.39s (avg: 0.100s/frame)
  Step 6 - Convert Arrays:    0.00s
  Step 7 - Forward Kinematics: 0.25s
  Step 8 - Save Data:         0.00s
Status: SUCCESS
==================================================

=== SUCCESS LOG - 2025-10-14 15:56:49 ===
Input file: /data/retarget/locomotion/raw/AMASS_SMPLXG/WEIZMANN/69/Normal_StraightLong(40)_stageii.npz
Output file: ../robot/ik_based/pkl/017110.pkl
Robot type: unitree_g1
Processing time: 7.09 seconds

STEP-BY-STEP TIMING:
  Step 1 - Load SMPLX:        1.05s
  Step 2 - Align FPS:         0.70s
  Step 3 - Init Retarget:     0.33s
  Step 4 - Init Visualization: 0.00s
  Step 5 - Process Frames:    4.72s (avg: 0.107s/frame)
  Step 6 - Convert Arrays:    0.00s
  Step 7 - Forward Kinematics: 0.14s
  Step 8 - Save Data:         0.00s
Status: SUCCESS
==================================================

=== SUCCESS LOG - 2025-10-14 15:56:49 ===
Input file: /data/retarget/locomotion/raw/AMASS_SMPLXG/WEIZMANN/69/Normal_StraightLong(41)_stageii.npz
Output file: ../robot/ik_based/pkl/017111.pkl
Robot type: unitree_g1
Processing time: 6.99 seconds

STEP-BY-STEP TIMING:
  Step 1 - Load SMPLX:        0.96s
  Step 2 - Align FPS:         0.51s
  Step 3 - Init Retarget:     0.39s
  Step 4 - Init Visualization: 0.00s
  Step 5 - Process Frames:    4.83s (avg: 0.112s/frame)
  Step 6 - Convert Arrays:    0.00s
  Step 7 - Forward Kinematics: 0.07s
  Step 8 - Save Data:         0.00s
Status: SUCCESS
==================================================

=== SUCCESS LOG - 2025-10-14 15:56:56 ===
Input file: /data/retarget/locomotion/raw/AMASS_SMPLXG/WEIZMANN/69/Normal_StraightLong(45)_stageii.npz
Output file: ../robot/ik_based/pkl/017115.pkl
Robot type: unitree_g1
Processing time: 6.82 seconds

STEP-BY-STEP TIMING:
  Step 1 - Load SMPLX:        0.83s
  Step 2 - Align FPS:         0.89s
  Step 3 - Init Retarget:     0.21s
  Step 4 - Init Visualization: 0.00s
  Step 5 - Process Frames:    4.45s (avg: 0.106s/frame)
  Step 6 - Convert Arrays:    0.00s
  Step 7 - Forward Kinematics: 0.31s
  Step 8 - Save Data:         0.00s
Status: SUCCESS
==================================================

=== SUCCESS LOG - 2025-10-14 15:56:56 ===
Input file: /data/retarget/locomotion/raw/AMASS_SMPLXG/WEIZMANN/69/Normal_StraightLong(44)_stageii.npz
Output file: ../robot/ik_based/pkl/017114.pkl
Robot type: unitree_g1
Processing time: 7.00 seconds

STEP-BY-STEP TIMING:
  Step 1 - Load SMPLX:        0.98s
  Step 2 - Align FPS:         0.89s
  Step 3 - Init Retarget:     0.25s
  Step 4 - Init Visualization: 0.00s
  Step 5 - Process Frames:    4.59s (avg: 0.104s/frame)
  Step 6 - Convert Arrays:    0.00s
  Step 7 - Forward Kinematics: 0.13s
  Step 8 - Save Data:         0.00s
Status: SUCCESS
==================================================

=== SUCCESS LOG - 2025-10-14 15:56:56 ===
Input file: /data/retarget/locomotion/raw/AMASS_SMPLXG/WEIZMANN/69/Normal_StraightLong(43)_stageii.npz
Output file: ../robot/ik_based/pkl/017113.pkl
Robot type: unitree_g1
Processing time: 7.16 seconds

STEP-BY-STEP TIMING:
  Step 1 - Load SMPLX:        0.95s
  Step 2 - Align FPS:         0.83s
  Step 3 - Init Retarget:     0.22s
  Step 4 - Init Visualization: 0.00s
  Step 5 - Process Frames:    4.85s (avg: 0.108s/frame)
  Step 6 - Convert Arrays:    0.00s
  Step 7 - Forward Kinematics: 0.15s
  Step 8 - Save Data:         0.00s
Status: SUCCESS
==================================================

=== SUCCESS LOG - 2025-10-14 15:57:03 ===
Input file: /data/retarget/locomotion/raw/AMASS_SMPLXG/WEIZMANN/69/Normal_StraightLong(47)_stageii.npz
Output file: ../robot/ik_based/pkl/017117.pkl
Robot type: unitree_g1
Processing time: 7.13 seconds

STEP-BY-STEP TIMING:
  Step 1 - Load SMPLX:        1.09s
  Step 2 - Align FPS:         0.64s
  Step 3 - Init Retarget:     0.32s
  Step 4 - Init Visualization: 0.00s
  Step 5 - Process Frames:    4.47s (avg: 0.112s/frame)
  Step 6 - Convert Arrays:    0.00s
  Step 7 - Forward Kinematics: 0.38s
  Step 8 - Save Data:         0.00s
Status: SUCCESS
==================================================

=== SUCCESS LOG - 2025-10-14 15:57:03 ===
Input file: /data/retarget/locomotion/raw/AMASS_SMPLXG/WEIZMANN/69/Normal_StraightLong(46)_stageii.npz
Output file: ../robot/ik_based/pkl/017116.pkl
Robot type: unitree_g1
Processing time: 7.48 seconds

STEP-BY-STEP TIMING:
  Step 1 - Load SMPLX:        0.98s
  Step 2 - Align FPS:         0.30s
  Step 3 - Init Retarget:     0.70s
  Step 4 - Init Visualization: 0.00s
  Step 5 - Process Frames:    5.09s (avg: 0.108s/frame)
  Step 6 - Convert Arrays:    0.00s
  Step 7 - Forward Kinematics: 0.27s
  Step 8 - Save Data:         0.00s
Status: SUCCESS
==================================================

=== SUCCESS LOG - 2025-10-14 15:57:03 ===
Input file: /data/retarget/locomotion/raw/AMASS_SMPLXG/WEIZMANN/69/Normal_StraightLong(48)_stageii.npz
Output file: ../robot/ik_based/pkl/017118.pkl
Robot type: unitree_g1
Processing time: 7.34 seconds

STEP-BY-STEP TIMING:
  Step 1 - Load SMPLX:        1.11s
  Step 2 - Align FPS:         0.60s
  Step 3 - Init Retarget:     0.41s
  Step 4 - Init Visualization: 0.00s
  Step 5 - Process Frames:    4.98s (avg: 0.096s/frame)
  Step 6 - Convert Arrays:    0.00s
  Step 7 - Forward Kinematics: 0.12s
  Step 8 - Save Data:         0.00s
Status: SUCCESS
==================================================

=== SUCCESS LOG - 2025-10-14 15:57:10 ===
Input file: /data/retarget/locomotion/raw/AMASS_SMPLXG/WEIZMANN/69/Normal_StraightLong(5)_stageii.npz
Output file: ../robot/ik_based/pkl/017120.pkl
Robot type: unitree_g1
Processing time: 7.10 seconds

STEP-BY-STEP TIMING:
  Step 1 - Load SMPLX:        1.00s
  Step 2 - Align FPS:         0.48s
  Step 3 - Init Retarget:     0.24s
  Step 4 - Init Visualization: 0.00s
  Step 5 - Process Frames:    4.50s (avg: 0.115s/frame)
  Step 6 - Convert Arrays:    0.00s
  Step 7 - Forward Kinematics: 0.56s
  Step 8 - Save Data:         0.00s
Status: SUCCESS
==================================================

=== SUCCESS LOG - 2025-10-14 15:57:11 ===
Input file: /data/retarget/locomotion/raw/AMASS_SMPLXG/WEIZMANN/69/Normal_StraightLong(49)_stageii.npz
Output file: ../robot/ik_based/pkl/017119.pkl
Robot type: unitree_g1
Processing time: 7.52 seconds

STEP-BY-STEP TIMING:
  Step 1 - Load SMPLX:        0.96s
  Step 2 - Align FPS:         0.53s
  Step 3 - Init Retarget:     0.21s
  Step 4 - Init Visualization: 0.00s
  Step 5 - Process Frames:    5.15s (avg: 0.103s/frame)
  Step 6 - Convert Arrays:    0.00s
  Step 7 - Forward Kinematics: 0.31s
  Step 8 - Save Data:         0.01s
Status: SUCCESS
==================================================

=== SUCCESS LOG - 2025-10-14 15:57:11 ===
Input file: /data/retarget/locomotion/raw/AMASS_SMPLXG/WEIZMANN/69/Normal_StraightLong(6)_stageii.npz
Output file: ../robot/ik_based/pkl/017121.pkl
Robot type: unitree_g1
Processing time: 7.44 seconds

STEP-BY-STEP TIMING:
  Step 1 - Load SMPLX:        1.39s
  Step 2 - Align FPS:         0.91s
  Step 3 - Init Retarget:     0.26s
  Step 4 - Init Visualization: 0.00s
  Step 5 - Process Frames:    4.78s (avg: 0.088s/frame)
  Step 6 - Convert Arrays:    0.00s
  Step 7 - Forward Kinematics: 0.05s
  Step 8 - Save Data:         0.00s
Status: SUCCESS
==================================================

=== SUCCESS LOG - 2025-10-14 15:57:19 ===
Input file: /data/retarget/locomotion/raw/AMASS_SMPLXG/WEIZMANN/69/Normal_StraightLong(7)_stageii.npz
Output file: ../robot/ik_based/pkl/017122.pkl
Robot type: unitree_g1
Processing time: 8.78 seconds

STEP-BY-STEP TIMING:
  Step 1 - Load SMPLX:        1.11s
  Step 2 - Align FPS:         0.60s
  Step 3 - Init Retarget:     0.22s
  Step 4 - Init Visualization: 0.00s
  Step 5 - Process Frames:    6.22s (avg: 0.111s/frame)
  Step 6 - Convert Arrays:    0.00s
  Step 7 - Forward Kinematics: 0.40s
  Step 8 - Save Data:         0.00s
Status: SUCCESS
==================================================

=== SUCCESS LOG - 2025-10-14 15:57:20 ===
Input file: /data/retarget/locomotion/raw/AMASS_SMPLXG/WEIZMANN/69/Normal_StraightLong(8)_stageii.npz
Output file: ../robot/ik_based/pkl/017123.pkl
Robot type: unitree_g1
Processing time: 8.72 seconds

STEP-BY-STEP TIMING:
  Step 1 - Load SMPLX:        0.96s
  Step 2 - Align FPS:         0.65s
  Step 3 - Init Retarget:     0.31s
  Step 4 - Init Visualization: 0.00s
  Step 5 - Process Frames:    6.42s (avg: 0.126s/frame)
  Step 6 - Convert Arrays:    0.00s
  Step 7 - Forward Kinematics: 0.23s
  Step 8 - Save Data:         0.00s
Status: SUCCESS
==================================================

=== SUCCESS LOG - 2025-10-14 15:57:20 ===
Input file: /data/retarget/locomotion/raw/AMASS_SMPLXG/WEIZMANN/69/Normal_StraightLong(9)_stageii.npz
Output file: ../robot/ik_based/pkl/017124.pkl
Robot type: unitree_g1
Processing time: 8.64 seconds

STEP-BY-STEP TIMING:
  Step 1 - Load SMPLX:        1.47s
  Step 2 - Align FPS:         0.69s
[...]
Output file: ../robot/ik_based/pkl/017726.pkl
Robot type: unitree_g1
Processing time: 17.02 seconds

STEP-BY-STEP TIMING:
  Step 1 - Load SMPLX:        3.17s
  Step 2 - Align FPS:         1.44s
  Step 3 - Init Retarget:     0.25s
  Step 4 - Init Visualization: 0.00s
  Step 5 - Process Frames:    11.04s (avg: 0.099s/frame)
  Step 6 - Convert Arrays:    0.00s
  Step 7 - Forward Kinematics: 0.49s
  Step 8 - Save Data:         0.01s
Status: SUCCESS
==================================================

=== SUCCESS LOG - 2025-10-14 18:57:29 ===
Input file: /data/retarget/locomotion/raw/AMASS_SMPLXG/WEIZMANN/70/Slow_StraightLong(30)_stageii.npz
Output file: ../robot/ik_based/pkl/017727.pkl
Robot type: unitree_g1
Processing time: 18.70 seconds

STEP-BY-STEP TIMING:
  Step 1 - Load SMPLX:        3.40s
  Step 2 - Align FPS:         1.34s
  Step 3 - Init Retarget:     0.22s
  Step 4 - Init Visualization: 0.00s
  Step 5 - Process Frames:    13.38s (avg: 0.115s/frame)
  Step 6 - Convert Arrays:    0.00s
  Step 7 - Forward Kinematics: 0.28s
  Step 8 - Save Data:         0.00s
Status: SUCCESS
==================================================

=== SUCCESS LOG - 2025-10-14 18:57:29 ===
Input file: /data/retarget/locomotion/raw/AMASS_SMPLXG/WEIZMANN/70/Slow_StraightLong(31)_stageii.npz
Output file: ../robot/ik_based/pkl/017728.pkl
Robot type: unitree_g1
Processing time: 15.42 seconds

STEP-BY-STEP TIMING:
  Step 1 - Load SMPLX:        3.96s
  Step 2 - Align FPS:         1.12s
  Step 3 - Init Retarget:     0.32s
  Step 4 - Init Visualization: 0.01s
  Step 5 - Process Frames:    9.79s (avg: 0.085s/frame)
  Step 6 - Convert Arrays:    0.00s
  Step 7 - Forward Kinematics: 0.16s
  Step 8 - Save Data:         0.00s
Status: SUCCESS
==================================================

=== SUCCESS LOG - 2025-10-14 18:57:43 ===
Input file: /data/retarget/locomotion/raw/AMASS_SMPLXG/WEIZMANN/70/Slow_StraightLong(32)_stageii.npz
Output file: ../robot/ik_based/pkl/017729.pkl
Robot type: unitree_g1
Processing time: 18.40 seconds

STEP-BY-STEP TIMING:
  Step 1 - Load SMPLX:        4.32s
  Step 2 - Align FPS:         0.74s
  Step 3 - Init Retarget:     0.20s
  Step 4 - Init Visualization: 0.00s
  Step 5 - Process Frames:    12.21s (avg: 0.103s/frame)
  Step 6 - Convert Arrays:    0.00s
  Step 7 - Forward Kinematics: 0.50s
  Step 8 - Save Data:         0.01s
Status: SUCCESS
==================================================

=== SUCCESS LOG - 2025-10-14 18:57:48 ===
Input file: /data/retarget/locomotion/raw/AMASS_SMPLXG/WEIZMANN/70/Slow_StraightLong(34)_stageii.npz
Output file: ../robot/ik_based/pkl/017731.pkl
Robot type: unitree_g1
Processing time: 18.76 seconds

STEP-BY-STEP TIMING:
  Step 1 - Load SMPLX:        2.53s
  Step 2 - Align FPS:         1.89s
  Step 3 - Init Retarget:     0.24s
  Step 4 - Init Visualization: 0.00s
  Step 5 - Process Frames:    13.63s (avg: 0.095s/frame)
  Step 6 - Convert Arrays:    0.00s
  Step 7 - Forward Kinematics: 0.21s
  Step 8 - Save Data:         0.00s
Status: SUCCESS
==================================================

=== SUCCESS LOG - 2025-10-14 18:57:48 ===
Input file: /data/retarget/locomotion/raw/AMASS_SMPLXG/WEIZMANN/70/Slow_StraightLong(33)_stageii.npz
Output file: ../robot/ik_based/pkl/017730.pkl
Robot type: unitree_g1
Processing time: 18.98 seconds

STEP-BY-STEP TIMING:
  Step 1 - Load SMPLX:        2.40s
  Step 2 - Align FPS:         1.20s
  Step 3 - Init Retarget:     0.26s
  Step 4 - Init Visualization: 0.00s
  Step 5 - Process Frames:    14.52s (avg: 0.129s/frame)
  Step 6 - Convert Arrays:    0.00s
  Step 7 - Forward Kinematics: 0.20s
  Step 8 - Save Data:         0.01s
Status: SUCCESS
==================================================

=== SUCCESS LOG - 2025-10-14 18:58:05 ===
Input file: /data/retarget/locomotion/raw/AMASS_SMPLXG/WEIZMANN/70/Slow_StraightLong(35)_stageii.npz
Output file: ../robot/ik_based/pkl/017732.pkl
Robot type: unitree_g1
Processing time: 21.27 seconds

STEP-BY-STEP TIMING:
  Step 1 - Load SMPLX:        3.16s
  Step 2 - Align FPS:         1.82s
  Step 3 - Init Retarget:     0.22s
  Step 4 - Init Visualization: 0.00s
  Step 5 - Process Frames:    15.09s (avg: 0.111s/frame)
  Step 6 - Convert Arrays:    0.00s
  Step 7 - Forward Kinematics: 0.54s
  Step 8 - Save Data:         0.01s
Status: SUCCESS
==================================================

=== SUCCESS LOG - 2025-10-14 18:58:06 ===
Input file: /data/retarget/locomotion/raw/AMASS_SMPLXG/WEIZMANN/70/Slow_StraightLong(37)_stageii.npz
Output file: ../robot/ik_based/pkl/017734.pkl
Robot type: unitree_g1
Processing time: 17.75 seconds

STEP-BY-STEP TIMING:
  Step 1 - Load SMPLX:        2.13s
  Step 2 - Align FPS:         1.54s
  Step 3 - Init Retarget:     0.26s
  Step 4 - Init Visualization: 0.00s
  Step 5 - Process Frames:    13.57s (avg: 0.133s/frame)
  Step 6 - Convert Arrays:    0.00s
  Step 7 - Forward Kinematics: 0.12s
  Step 8 - Save Data:         0.00s
Status: SUCCESS
==================================================

=== SUCCESS LOG - 2025-10-14 18:58:07 ===
Input file: /data/retarget/locomotion/raw/AMASS_SMPLXG/WEIZMANN/70/Slow_StraightLong(36)_stageii.npz
Output file: ../robot/ik_based/pkl/017733.pkl
Robot type: unitree_g1
Processing time: 17.98 seconds

STEP-BY-STEP TIMING:
  Step 1 - Load SMPLX:        2.37s
  Step 2 - Align FPS:         1.61s
  Step 3 - Init Retarget:     0.25s
  Step 4 - Init Visualization: 0.00s
  Step 5 - Process Frames:    13.40s (avg: 0.120s/frame)
  Step 6 - Convert Arrays:    0.00s
  Step 7 - Forward Kinematics: 0.12s
  Step 8 - Save Data:         0.00s
Status: SUCCESS
==================================================

=== SUCCESS LOG - 2025-10-14 18:58:22 ===
Input file: /data/retarget/locomotion/raw/AMASS_SMPLXG/WEIZMANN/70/Slow_StraightLong(38)_stageii.npz
Output file: ../robot/ik_based/pkl/017735.pkl
Robot type: unitree_g1
Processing time: 16.32 seconds

STEP-BY-STEP TIMING:
  Step 1 - Load SMPLX:        2.13s
  Step 2 - Align FPS:         0.72s
  Step 3 - Init Retarget:     0.21s
  Step 4 - Init Visualization: 0.00s
  Step 5 - Process Frames:    12.41s (avg: 0.119s/frame)
  Step 6 - Convert Arrays:    0.00s
  Step 7 - Forward Kinematics: 0.46s
  Step 8 - Save Data:         0.01s
Status: SUCCESS
==================================================

=== SUCCESS LOG - 2025-10-14 18:58:23 ===
Input file: /data/retarget/locomotion/raw/AMASS_SMPLXG/WEIZMANN/70/Slow_StraightLong(4)_stageii.npz
Output file: ../robot/ik_based/pkl/017737.pkl
Robot type: unitree_g1
Processing time: 16.50 seconds

STEP-BY-STEP TIMING:
  Step 1 - Load SMPLX:        1.83s
  Step 2 - Align FPS:         1.55s
  Step 3 - Init Retarget:     0.44s
  Step 4 - Init Visualization: 0.00s
  Step 5 - Process Frames:    12.20s (avg: 0.115s/frame)
  Step 6 - Convert Arrays:    0.00s
  Step 7 - Forward Kinematics: 0.22s
  Step 8 - Save Data:         0.01s
Status: SUCCESS
==================================================

=== SUCCESS LOG - 2025-10-14 18:58:24 ===
Input file: /data/retarget/locomotion/raw/AMASS_SMPLXG/WEIZMANN/70/Slow_StraightLong(39)_stageii.npz
Output file: ../robot/ik_based/pkl/017736.pkl
Robot type: unitree_g1
Processing time: 17.62 seconds

STEP-BY-STEP TIMING:
  Step 1 - Load SMPLX:        1.79s
  Step 2 - Align FPS:         2.18s
  Step 3 - Init Retarget:     0.26s
  Step 4 - Init Visualization: 0.00s
  Step 5 - Process Frames:    13.29s (avg: 0.101s/frame)
  Step 6 - Convert Arrays:    0.00s
  Step 7 - Forward Kinematics: 0.04s
  Step 8 - Save Data:         0.00s
Status: SUCCESS
==================================================

=== SUCCESS LOG - 2025-10-14 18:58:42 ===
Input file: /data/retarget/locomotion/raw/AMASS_SMPLXG/WEIZMANN/70/Slow_StraightLong(40)_stageii.npz
Output file: ../robot/ik_based/pkl/017738.pkl
Robot type: unitree_g1
Processing time: 19.88 seconds

STEP-BY-STEP TIMING:
  Step 1 - Load SMPLX:        3.03s
  Step 2 - Align FPS:         0.83s
  Step 3 - Init Retarget:     0.25s
  Step 4 - Init Visualization: 0.00s
  Step 5 - Process Frames:    15.19s (avg: 0.125s/frame)
  Step 6 - Convert Arrays:    0.00s
  Step 7 - Forward Kinematics: 0.34s
  Step 8 - Save Data:         0.01s
Status: SUCCESS
==================================================

=== SUCCESS LOG - 2025-10-14 18:58:42 ===
Input file: /data/retarget/locomotion/raw/AMASS_SMPLXG/WEIZMANN/70/Slow_StraightLong(41)_stageii.npz
Output file: ../robot/ik_based/pkl/017739.pkl
Robot type: unitree_g1
Processing time: 18.21 seconds

STEP-BY-STEP TIMING:
  Step 1 - Load SMPLX:        2.12s
  Step 2 - Align FPS:         1.17s
  Step 3 - Init Retarget:     0.27s
  Step 4 - Init Visualization: 0.00s
  Step 5 - Process Frames:    14.15s (avg: 0.126s/frame)
  Step 6 - Convert Arrays:    0.00s
  Step 7 - Forward Kinematics: 0.22s
  Step 8 - Save Data:         0.01s
Status: SUCCESS
==================================================

=== SUCCESS LOG - 2025-10-14 18:58:43 ===
Input file: /data/retarget/locomotion/raw/AMASS_SMPLXG/WEIZMANN/70/Slow_StraightLong(42)_stageii.npz
Output file: ../robot/ik_based/pkl/017740.pkl
Robot type: unitree_g1
Processing time: 18.06 seconds

STEP-BY-STEP TIMING:
  Step 1 - Load SMPLX:        2.37s
  Step 2 - Align FPS:         2.36s
  Step 3 - Init Retarget:     0.32s
  Step 4 - Init Visualization: 0.00s
  Step 5 - Process Frames:    12.92s (avg: 0.103s/frame)
  Step 6 - Convert Arrays:    0.00s
  Step 7 - Forward Kinematics: 0.04s
  Step 8 - Save Data:         0.00s
Status: SUCCESS
==================================================

=== SUCCESS LOG - 2025-10-14 18:59:02 ===
Input file: /data/retarget/locomotion/raw/AMASS_SMPLXG/WEIZMANN/70/Slow_StraightLong(43)_stageii.npz
Output file: ../robot/ik_based/pkl/017741.pkl
Robot type: unitree_g1
Processing time: 19.98 seconds

STEP-BY-STEP TIMING:
  Step 1 - Load SMPLX:        1.50s
  Step 2 - Align FPS:         1.45s
  Step 3 - Init Retarget:     0.25s
  Step 4 - Init Visualization: 0.00s
  Step 5 - Process Frames:    15.95s (avg: 0.139s/frame)
  Step 6 - Convert Arrays:    0.00s
  Step 7 - Forward Kinematics: 0.45s
  Step 8 - Save Data:         0.01s
Status: SUCCESS
==================================================

=== SUCCESS LOG - 2025-10-14 18:59:03 ===
Input file: /data/retarget/locomotion/raw/AMASS_SMPLXG/WEIZMANN/70/Slow_StraightLong(45)_stageii.npz
Output file: ../robot/ik_based/pkl/017743.pkl
Robot type: unitree_g1
Processing time: 19.95 seconds

STEP-BY-STEP TIMING:
  Step 1 - Load SMPLX:        2.43s
  Step 2 - Align FPS:         1.76s
  Step 3 - Init Retarget:     0.31s
  Step 4 - Init Visualization: 0.00s
  Step 5 - Process Frames:    15.13s (avg: 0.121s/frame)
  Step 6 - Convert Arrays:    0.00s
  Step 7 - Forward Kinematics: 0.17s
  Step 8 - Save Data:         0.00s
Status: SUCCESS
==================================================

=== SUCCESS LOG - 2025-10-14 18:59:04 ===
Input file: /data/retarget/locomotion/raw/AMASS_SMPLXG/WEIZMANN/70/Slow_StraightLong(44)_stageii.npz
Output file: ../robot/ik_based/pkl/017742.pkl
Robot type: unitree_g1
Processing time: 22.28 seconds

STEP-BY-STEP TIMING:
  Step 1 - Load SMPLX:        1.64s
  Step 2 - Align FPS:         3.10s
  Step 3 - Init Retarget:     0.27s
  Step 4 - Init Visualization: 0.00s
  Step 5 - Process Frames:    17.14s (avg: 0.112s/frame)
  Step 6 - Convert Arrays:    0.00s
  Step 7 - Forward Kinematics: 0.07s
  Step 8 - Save Data:         0.00s
Status: SUCCESS
==================================================

=== SUCCESS LOG - 2025-10-14 18:59:23 ===
Input file: /data/retarget/locomotion/raw/AMASS_SMPLXG/WEIZMANN/70/Slow_StraightLong(47)_stageii.npz
Output file: ../robot/ik_based/pkl/017745.pkl
Robot type: unitree_g1
Processing time: 19.46 seconds

STEP-BY-STEP TIMING:
  Step 1 - Load SMPLX:        2.18s
  Step 2 - Align FPS:         1.66s
  Step 3 - Init Retarget:     0.25s
  Step 4 - Init Visualization: 0.00s
  Step 5 - Process Frames:    14.65s (avg: 0.108s/frame)
  Step 6 - Convert Arrays:    0.00s
  Step 7 - Forward Kinematics: 0.39s
  Step 8 - Save Data:         0.01s
Status: SUCCESS
==================================================

=== SUCCESS LOG - 2025-10-14 18:59:23 ===
Input file: /data/retarget/locomotion/raw/AMASS_SMPLXG/WEIZMANN/70/Slow_StraightLong(46)_stageii.npz
Output file: ../robot/ik_based/pkl/017744.pkl
Robot type: unitree_g1
Processing time: 20.39 seconds

STEP-BY-STEP TIMING:
  Step 1 - Load SMPLX:        2.49s
  Step 2 - Align FPS:         1.66s
  Step 3 - Init Retarget:     0.27s
  Step 4 - Init Visualization: 0.00s
  Step 5 - Process Frames:    15.27s (avg: 0.112s/frame)
  Step 6 - Convert Arrays:    0.00s
  Step 7 - Forward Kinematics: 0.33s
  Step 8 - Save Data:         0.00s
Status: SUCCESS
==================================================

=== SUCCESS LOG - 2025-10-14 18:59:26 ===
Input file: /data/retarget/locomotion/raw/AMASS_SMPLXG/WEIZMANN/70/Slow_StraightLong(48)_stageii.npz
Output file: ../robot/ik_based/pkl/017746.pkl
Robot type: unitree_g1
Processing time: 20.90 seconds

STEP-BY-STEP TIMING:
  Step 1 - Load SMPLX:        3.85s
  Step 2 - Align FPS:         2.93s
  Step 3 - Init Retarget:     0.26s
  Step 4 - Init Visualization: 0.00s
  Step 5 - Process Frames:    13.45s (avg: 0.096s/frame)
  Step 6 - Convert Arrays:    0.00s
  Step 7 - Forward Kinematics: 0.04s
  Step 8 - Save Data:         0.02s
Status: SUCCESS
==================================================

=== SUCCESS LOG - 2025-10-14 18:59:41 ===
Input file: /data/retarget/locomotion/raw/AMASS_SMPLXG/WEIZMANN/70/Slow_StraightLong(6)_stageii.npz
Output file: ../robot/ik_based/pkl/017748.pkl
Robot type: unitree_g1
Processing time: 17.69 seconds

STEP-BY-STEP TIMING:
  Step 1 - Load SMPLX:        2.47s
  Step 2 - Align FPS:         1.29s
  Step 3 - Init Retarget:     0.25s
  Step 4 - Init Visualization: 0.00s
  Step 5 - Process Frames:    12.78s (avg: 0.117s/frame)
  Step 6 - Convert Arrays:    0.00s
  Step 7 - Forward Kinematics: 0.54s
  Step 8 - Save Data:         0.00s
Status: SUCCESS
==================================================

=== SUCCESS LOG - 2025-10-14 18:59:41 ===
Input file: /data/retarget/locomotion/raw/AMASS_SMPLXG/WEIZMANN/70/Slow_StraightLong(5)_stageii.npz
Output file: ../robot/ik_based/pkl/017747.pkl
Robot type: unitree_g1
Processing time: 18.18 seconds

STEP-BY-STEP TIMING:
  Step 1 - Load SMPLX:        2.44s
  Step 2 - Align FPS:         1.23s
  Step 3 - Init Retarget:     0.27s
  Step 4 - Init Visualization: 0.00s
  Step 5 - Process Frames:    13.64s (avg: 0.120s/frame)
  Step 6 - Convert Arrays:    0.00s
  Step 7 - Forward Kinematics: 0.34s
  Step 8 - Save Data:         0.00s
Status: SUCCESS
==================================================

=== SUCCESS LOG - 2025-10-14 18:59:42 ===
Input file: /data/retarget/locomotion/raw/AMASS_SMPLXG/WEIZMANN/70/Slow_StraightLong(7)_stageii.npz
Output file: ../robot/ik_based/pkl/017749.pkl
Robot type: unitree_g1
Processing time: 16.28 seconds

STEP-BY-STEP TIMING:
  Step 1 - Load SMPLX:        4.44s
  Step 2 - Align FPS:         1.00s
  Step 3 - Init Retarget:     0.26s
  Step 4 - Init Visualization: 0.00s
  Step 5 - Process Frames:    10.49s (avg: 0.092s/frame)
  Step 6 - Convert Arrays:    0.00s
  Step 7 - Forward Kinematics: 0.05s
  Step 8 - Save Data:         0.00s
Status: SUCCESS
==================================================

=== SUCCESS LOG - 2025-10-14 19:00:01 ===
Input file: /data/retarget/locomotion/raw/AMASS_SMPLXG/WEIZMANN/70/Slow_StraightLong(9)_stageii.npz
Output file: ../robot/ik_based/pkl/017751.pkl
Robot type: unitree_g1
Processing time: 20.11 seconds

STEP-BY-STEP TIMING:
  Step 1 - Load SMPLX:        1.82s
  Step 2 - Align FPS:         1.05s
  Step 3 - Init Retarget:     0.24s
  Step 4 - Init Visualization: 0.00s
  Step 5 - Process Frames:    16.15s (avg: 0.158s/frame)
  Step 6 - Convert Arrays:    0.00s
  Step 7 - Forward Kinematics: 0.42s
  Step 8 - Save Data:         0.01s
Status: SUCCESS
==================================================

=== SUCCESS LOG - 2025-10-14 19:00:02 ===
Input file: /data/retarget/locomotion/raw/AMASS_SMPLXG/WEIZMANN/70/Slow_StraightLong(8)_stageii.npz
Output file: ../robot/ik_based/pkl/017750.pkl
Robot type: unitree_g1
Processing time: 21.39 seconds

STEP-BY-STEP TIMING:
  Step 1 - Load SMPLX:        1.98s
  Step 2 - Align FPS:         0.92s
  Step 3 - Init Retarget:     0.39s
  Step 4 - Init Visualization: 0.00s
  Step 5 - Process Frames:    17.45s (avg: 0.159s/frame)
  Step 6 - Convert Arrays:    0.00s
  Step 7 - Forward Kinematics: 0.34s
  Step 8 - Save Data:         0.00s
Status: SUCCESS
==================================================

=== SUCCESS LOG - 2025-10-14 19:01:19 ===
Input file: /data/retarget/locomotion/raw/AMASS_SMPLXG/WEIZMANN/70/Slow_StraightShort(3)_stageii.npz
Output file: ../robot/ik_based/pkl/017754.pkl
Robot type: unitree_g1
Processing time: 76.33 seconds

STEP-BY-STEP TIMING:
  Step 1 - Load SMPLX:        7.50s
  Step 2 - Align FPS:         6.57s
  Step 3 - Init Retarget:     0.33s
  Step 4 - Init Visualization: 0.00s
  Step 5 - Process Frames:    60.90s (avg: 0.167s/frame)
  Step 6 - Convert Arrays:    0.00s
  Step 7 - Forward Kinematics: 0.48s
  Step 8 - Save Data:         0.01s
Status: SUCCESS
==================================================

=== SUCCESS LOG - 2025-10-14 19:05:53 ===
Input file: /data/retarget/locomotion/raw/AMASS_SMPLXG/WEIZMANN/70/Slow_StraightShort(1)_stageii.npz
Output file: ../robot/ik_based/pkl/017752.pkl
Robot type: unitree_g1
Processing time: 371.10 seconds

STEP-BY-STEP TIMING:
  Step 1 - Load SMPLX:        4.99s
  Step 2 - Align FPS:         21.13s
  Step 3 - Init Retarget:     0.77s
  Step 4 - Init Visualization: 0.00s
  Step 5 - Process Frames:    343.23s (avg: 0.158s/frame)
  Step 6 - Convert Arrays:    0.01s
  Step 7 - Forward Kinematics: 0.56s
  Step 8 - Save Data:         0.02s
Status: SUCCESS
==================================================

=== ERROR LOG - 2025-10-14 19:05:59 ===
Input file: /data/retarget/locomotion/raw/AMASS_SMPLXG/WEIZMANN/70/male_stagei.npz
Output file: ../robot/ik_based/pkl/017756.pkl
Robot type: unitree_g1
Processing time: 3.98 seconds
Error message: 'pose_body is not a file in the archive'
Error type: KeyError
==================================================

=== SUCCESS LOG - 2025-10-14 19:06:15 ===
Input file: /data/retarget/locomotion/raw/AMASS_SMPLXG/WEIZMANN/70/Slow_StraightShort(2)_stageii.npz
Output file: ../robot/ik_based/pkl/017753.pkl
Robot type: unitree_g1
Processing time: 373.58 seconds

STEP-BY-STEP TIMING:
  Step 1 - Load SMPLX:        7.37s
  Step 2 - Align FPS:         28.74s
  Step 3 - Init Retarget:     0.27s
  Step 4 - Init Visualization: 0.00s
  Step 5 - Process Frames:    336.95s (avg: 0.155s/frame)
  Step 6 - Convert Arrays:    0.01s
  Step 7 - Forward Kinematics: 0.12s
  Step 8 - Save Data:         0.00s
Status: SUCCESS
==================================================

=== SUCCESS LOG - 2025-10-14 19:06:30 ===
Input file: /data/retarget/locomotion/raw/AMASS_SMPLXG/WEIZMANN/70/Slow_StraightShort(4)_stageii.npz
Output file: ../robot/ik_based/pkl/017755.pkl
Robot type: unitree_g1
Processing time: 310.39 seconds

STEP-BY-STEP TIMING:
  Step 1 - Load SMPLX:        7.05s
  Step 2 - Align FPS:         26.36s
  Step 3 - Init Retarget:     0.30s
  Step 4 - Init Visualization: 0.00s
  Step 5 - Process Frames:    276.57s (avg: 0.118s/frame)
  Step 6 - Convert Arrays:    0.01s
  Step 7 - Forward Kinematics: 0.05s
  Step 8 - Save Data:         0.01s
Status: SUCCESS
==================================================

=== FINAL STATISTICS - 2025-10-14 19:06:31 ===
Total files processed: 757
Successful: 755
Failed: 2
, Total processing time: 39423.35 seconds
 Total execution time: 13249.27 seconds
Average processing time per file: 52.22 seconds
Average frames per file: 349.3 frames (755 files with frames)
Total frames processed: 263,716 frames
==================================================
