
=== ERROR LOG - 2025-10-14 22:42:07 ===
Input file: /data/retarget/locomotion/raw/AMASS_SMPLXG/CMU/128/male_stagei.npz
Output file: ../robot/ik_based/pkl/006000.pkl
Robot type: unitree_g1
Processing time: 1.33 seconds
Error message: 'pose_body is not a file in the archive'
Error type: KeyError
==================================================

=== FILE FAILURE - 2025-10-14 22:42:07 ===
File index: 006000
File number: 1/11757
Input file: /data/retarget/locomotion/raw/AMASS_SMPLXG/CMU/128/male_stagei.npz
Output file: ../robot/ik_based/pkl/006000.pkl
Processing time: 1.33 seconds
Total file time: 1.44 seconds
Status: FAILED
==================================================

=== SKIPPED (ALREADY EXISTS) - 2025-10-14 22:42:07 ===
File index: 006001
Input file: /data/retarget/locomotion/raw/AMASS_SMPLXG/CMU/13/13_01_stageii.npz
Output file: ../robot/ik_based/pkl/006001.pkl
Status: SKIPPED (ALREADY EXISTS) - NO PROCESSING PERFORMED
==================================================

=== SKIPPED (ALREADY EXISTS) - 2025-10-14 22:42:07 ===
File index: 006002
Input file: /data/retarget/locomotion/raw/AMASS_SMPLXG/CMU/13/13_02_stageii.npz
Output file: ../robot/ik_based/pkl/006002.pkl
Status: SKIPPED (ALREADY EXISTS) - NO PROCESSING PERFORMED
==================================================

=== SKIPPED (ALREADY EXISTS) - 2025-10-14 22:42:07 ===
File index: 006003
Input file: /data/retarget/locomotion/raw/AMASS_SMPLXG/CMU/13/13_03_stageii.npz
Output file: ../robot/ik_based/pkl/006003.pkl
Status: SKIPPED (ALREADY EXISTS) - NO PROCESSING PERFORMED
==================================================

=== SKIPPED (ALREADY EXISTS) - 2025-10-14 22:42:07 ===
File index: 006004
Input file: /data/retarget/locomotion/raw/AMASS_SMPLXG/CMU/13/13_04_stageii.npz
Output file: ../robot/ik_based/pkl/006004.pkl
Status: SKIPPED (ALREADY EXISTS) - NO PROCESSING PERFORMED
==================================================

=== SKIPPED (ALREADY EXISTS) - 2025-10-14 22:42:07 ===
File index: 006005
Input file: /data/retarget/locomotion/raw/AMASS_SMPLXG/CMU/13/13_05_stageii.npz
Output file: ../robot/ik_based/pkl/006005.pkl
Status: SKIPPED (ALREADY EXISTS) - NO PROCESSING PERFORMED
==================================================

=== SKIPPED (ALREADY EXISTS) - 2025-10-14 22:42:07 ===
File index: 006006
Input file: /data/retarget/locomotion/raw/AMASS_SMPLXG/CMU/13/13_06_stageii.npz
Output file: ../robot/ik_based/pkl/006006.pkl
Status: SKIPPED (ALREADY EXISTS) - NO PROCESSING PERFORMED
==================================================

=== SKIPPED (ALREADY EXISTS) - 2025-10-14 22:42:07 ===
File index: 006007
Input file: /data/retarget/locomotion/raw/AMASS_SMPLXG/CMU/13/13_07_stageii.npz
Output file: ../robot/ik_based/pkl/006007.pkl
Status: SKIPPED (ALREADY EXISTS) - NO PROCESSING PERFORMED
==================================================

=== SKIPPED (ALREADY EXISTS) - 2025-10-14 22:42:07 ===
File index: 006008
Input file: /data/retarget/locomotion/raw/AMASS_SMPLXG/CMU/13/13_08_stageii.npz
Output file: ../robot/ik_based/pkl/006008.pkl
Status: SKIPPED (ALREADY EXISTS) - NO PROCESSING PERFORMED
==================================================

=== SKIPPED (ALREADY EXISTS) - 2025-10-14 22:42:07 ===
File index: 006009
Input file: /data/retarget/locomotion/raw/AMASS_SMPLXG/CMU/13/13_09_stageii.npz
Output file: ../robot/ik_based/pkl/006009.pkl
Status: SKIPPED (ALREADY EXISTS) - NO PROCESSING PERFORMED
==================================================

=== SKIPPED (ALREADY EXISTS) - 2025-10-14 22:42:07 ===
File index: 006010
Input file: /data/retarget/locomotion/raw/AMASS_SMPLXG/CMU/13/13_10_stageii.npz
Output file: ../robot/ik_based/pkl/006010.pkl
Status: SKIPPED (ALREADY EXISTS) - NO PROCESSING PERFORMED
==================================================

=== SKIPPED (ALREADY EXISTS) - 2025-10-14 22:42:07 ===
File index: 006011
Input file: /data/retarget/locomotion/raw/AMASS_SMPLXG/CMU/13/13_11_stageii.npz
Output file: ../robot/ik_based/pkl/006011.pkl
Status: SKIPPED (ALREADY EXISTS) - NO PROCESSING PERFORMED
==================================================

=== SKIPPED (ALREADY EXISTS) - 2025-10-14 22:42:07 ===
File index: 006012
Input file: /data/retarget/locomotion/raw/AMASS_SMPLXG/CMU/13/13_12_stageii.npz
Output file: ../robot/ik_based/pkl/006012.pkl
Status: SKIPPED (ALREADY EXISTS) - NO PROCESSING PERFORMED
==================================================

=== SKIPPED (ALREADY EXISTS) - 2025-10-14 22:42:07 ===
File index: 006013
Input file: /data/retarget/locomotion/raw/AMASS_SMPLXG/CMU/13/13_13_stageii.npz
Output file: ../robot/ik_based/pkl/006013.pkl
Status: SKIPPED (ALREADY EXISTS) - NO PROCESSING PERFORMED
==================================================

=== SKIPPED (ALREADY EXISTS) - 2025-10-14 22:42:07 ===
File index: 006014
Input file: /data/retarget/locomotion/raw/AMASS_SMPLXG/CMU/13/13_14_stageii.npz
Output file: ../robot/ik_based/pkl/006014.pkl
Status: SKIPPED (ALREADY EXISTS) - NO PROCESSING PERFORMED
==================================================

=== SKIPPED (ALREADY EXISTS) - 2025-10-14 22:42:07 ===
File index: 006015
Input file: /data/retarget/locomotion/raw/AMASS_SMPLXG/CMU/13/13_15_stageii.npz
Output file: ../robot/ik_based/pkl/006015.pkl
Status: SKIPPED (ALREADY EXISTS) - NO PROCESSING PERFORMED
==================================================

=== SKIPPED (ALREADY EXISTS) - 2025-10-14 22:42:07 ===
File index: 006016
Input file: /data/retarget/locomotion/raw/AMASS_SMPLXG/CMU/13/13_16_stageii.npz
Output file: ../robot/ik_based/pkl/006016.pkl
Status: SKIPPED (ALREADY EXISTS) - NO PROCESSING PERFORMED
==================================================

=== SKIPPED (ALREADY EXISTS) - 2025-10-14 22:42:07 ===
File index: 006017
Input file: /data/retarget/locomotion/raw/AMASS_SMPLXG/CMU/13/13_17_stageii.npz
Output file: ../robot/ik_based/pkl/006017.pkl
Status: SKIPPED (ALREADY EXISTS) - NO PROCESSING PERFORMED
==================================================

=== SKIPPED (ALREADY EXISTS) - 2025-10-14 22:42:07 ===
File index: 006018
Input file: /data/retarget/locomotion/raw/AMASS_SMPLXG/CMU/13/13_18_stageii.npz
Output file: ../robot/ik_based/pkl/006018.pkl
Status: SKIPPED (ALREADY EXISTS) - NO PROCESSING PERFORMED
==================================================

=== SKIPPED (ALREADY EXISTS) - 2025-10-14 22:42:07 ===
File index: 006019
Input file: /data/retarget/locomotion/raw/AMASS_SMPLXG/CMU/13/13_19_stageii.npz
Output file: ../robot/ik_based/pkl/006019.pkl
Status: SKIPPED (ALREADY EXISTS) - NO PROCESSING PERFORMED
==================================================

=== SKIPPED (ALREADY EXISTS) - 2025-10-14 22:42:07 ===
File index: 006020
Input file: /data/retarget/locomotion/raw/AMASS_SMPLXG/CMU/13/13_20_stageii.npz
Output file: ../robot/ik_based/pkl/006020.pkl
Status: SKIPPED (ALREADY EXISTS) - NO PROCESSING PERFORMED
==================================================

=== SKIPPED (ALREADY EXISTS) - 2025-10-14 22:42:07 ===
File index: 006021
Input file: /data/retarget/locomotion/raw/AMASS_SMPLXG/CMU/13/13_21_stageii.npz
Output file: ../robot/ik_based/pkl/006021.pkl
Status: SKIPPED (ALREADY EXISTS) - NO PROCESSING PERFORMED
==================================================

=== SKIPPED (ALREADY EXISTS) - 2025-10-14 22:42:07 ===
File index: 006022
Input file: /data/retarget/locomotion/raw/AMASS_SMPLXG/CMU/13/13_22_stageii.npz
Output file: ../robot/ik_based/pkl/006022.pkl
Status: SKIPPED (ALREADY EXISTS) - NO PROCESSING PERFORMED
==================================================

=== SKIPPED (ALREADY EXISTS) - 2025-10-14 22:42:07 ===
File index: 006023
Input file: /data/retarget/locomotion/raw/AMASS_SMPLXG/CMU/13/13_23_stageii.npz
Output file: ../robot/ik_based/pkl/006023.pkl
Status: SKIPPED (ALREADY EXISTS) - NO PROCESSING PERFORMED
==================================================

=== SKIPPED (ALREADY EXISTS) - 2025-10-14 22:42:07 ===
File index: 006024
Input file: /data/retarget/locomotion/raw/AMASS_SMPLXG/CMU/13/13_24_stageii.npz
Output file: ../robot/ik_based/pkl/006024.pkl
Status: SKIPPED (ALREADY EXISTS) - NO PROCESSING PERFORMED
==================================================

=== SKIPPED (ALREADY EXISTS) - 2025-10-14 22:42:07 ===
File index: 006025
Input file: /data/retarget/locomotion/raw/AMASS_SMPLXG/CMU/13/13_25_stageii.npz
Output file: ../robot/ik_based/pkl/006025.pkl
Status: SKIPPED (ALREADY EXISTS) - NO PROCESSING PERFORMED
==================================================

=== SKIPPED (ALREADY EXISTS) - 2025-10-14 22:42:07 ===
File index: 006026
Input file: /data/retarget/locomotion/raw/AMASS_SMPLXG/CMU/13/13_26_stageii.npz
Output file: ../robot/ik_based/pkl/006026.pkl
Status: SKIPPED (ALREADY EXISTS) - NO PROCESSING PERFORMED
==================================================

=== SKIPPED (ALREADY EXISTS) - 2025-10-14 22:42:07 ===
File index: 006027
Input file: /data/retarget/locomotion/raw/AMASS_SMPLXG/CMU/13/13_27_stageii.npz
Output file: ../robot/ik_based/pkl/006027.pkl
Status: SKIPPED (ALREADY EXISTS) - NO PROCESSING PERFORMED
==================================================

=== SKIPPED (ALREADY EXISTS) - 2025-10-14 22:42:07 ===
File index: 006028
Input file: /data/retarget/locomotion/raw/AMASS_SMPLXG/CMU/13/13_28_stageii.npz
Output file: ../robot/ik_based/pkl/006028.pkl
Status: SKIPPED (ALREADY EXISTS) - NO PROCESSING PERFORMED
==================================================

=== SKIPPED (ALREADY EXISTS) - 2025-10-14 22:42:07 ===
File index: 006029
Input file: /data/retarget/locomotion/raw/AMASS_SMPLXG/CMU/13/13_29_stageii.npz
Output file: ../robot/ik_based/pkl/006029.pkl
Status: SKIPPED (ALREADY EXISTS) - NO PROCESSING PERFORMED
==================================================

=== SKIPPED (ALREADY EXISTS) - 2025-10-14 22:42:07 ===
File index: 006030
Input file: /data/retarget/locomotion/raw/AMASS_SMPLXG/CMU/13/13_30_stageii.npz
Output file: ../robot/ik_based/pkl/006030.pkl
Status: SKIPPED (ALREADY EXISTS) - NO PROCESSING PERFORMED
==================================================

=== SKIPPED (ALREADY EXISTS) - 2025-10-14 22:42:07 ===
File index: 006031
Input file: /data/retarget/locomotion/raw/AMASS_SMPLXG/CMU/13/13_31_stageii.npz
Output file: ../robot/ik_based/pkl/006031.pkl
Status: SKIPPED (ALREADY EXISTS) - NO PROCESSING PERFORMED
==================================================

=== SKIPPED (ALREADY EXISTS) - 2025-10-14 22:42:07 ===
File index: 006032
Input file: /data/retarget/locomotion/raw/AMASS_SMPLXG/CMU/13/13_32_stageii.npz
Output file: ../robot/ik_based/pkl/006032.pkl
Status: SKIPPED (ALREADY EXISTS) - NO PROCESSING PERFORMED
==================================================

=== SKIPPED (ALREADY EXISTS) - 2025-10-14 22:42:07 ===
File index: 006033
Input file: /data/retarget/locomotion/raw/AMASS_SMPLXG/CMU/13/13_33_stageii.npz
Output file: ../robot/ik_based/pkl/006033.pkl
Status: SKIPPED (ALREADY EXISTS) - NO PROCESSING PERFORMED
==================================================

=== SKIPPED (ALREADY EXISTS) - 2025-10-14 22:42:07 ===
File index: 006034
Input file: /data/retarget/locomotion/raw/AMASS_SMPLXG/CMU/13/13_34_stageii.npz
Output file: ../robot/ik_based/pkl/006034.pkl
Status: SKIPPED (ALREADY EXISTS) - NO PROCESSING PERFORMED
==================================================

=== SKIPPED (ALREADY EXISTS) - 2025-10-14 22:42:07 ===
File index: 006035
Input file: /data/retarget/locomotion/raw/AMASS_SMPLXG/CMU/13/13_35_stageii.npz
Output file: ../robot/ik_based/pkl/006035.pkl
Status: SKIPPED (ALREADY EXISTS) - NO PROCESSING PERFORMED
==================================================

=== SKIPPED (ALREADY EXISTS) - 2025-10-14 22:42:07 ===
File index: 006036
Input file: /data/retarget/locomotion/raw/AMASS_SMPLXG/CMU/13/13_36_stageii.npz
Output file: ../robot/ik_based/pkl/006036.pkl
Status: SKIPPED (ALREADY EXISTS) - NO PROCESSING PERFORMED
==================================================

=== SKIPPED (ALREADY EXISTS) - 2025-10-14 22:42:07 ===
File index: 006037
Input file: /data/retarget/locomotion/raw/AMASS_SMPLXG/CMU/13/13_37_stageii.npz
Output file: ../robot/ik_based/pkl/006037.pkl
Status: SKIPPED (ALREADY EXISTS) - NO PROCESSING PERFORMED
==================================================

=== SKIPPED (ALREADY EXISTS) - 2025-10-14 22:42:07 ===
File index: 006038
Input file: /data/retarget/locomotion/raw/AMASS_SMPLXG/CMU/13/13_38_stageii.npz
Output file: ../robot/ik_based/pkl/006038.pkl
Status: SKIPPED (ALREADY EXISTS) - NO PROCESSING PERFORMED
==================================================

=== SKIPPED (ALREADY EXISTS) - 2025-10-14 22:42:07 ===
File index: 006039
Input file: /data/retarget/locomotion/raw/AMASS_SMPLXG/CMU/13/13_39_stageii.npz
Output file: ../robot/ik_based/pkl/006039.pkl
Status: SKIPPED (ALREADY EXISTS) - NO PROCESSING PERFORMED
==================================================

=== SKIPPED (ALREADY EXISTS) - 2025-10-14 22:42:07 ===
File index: 006040
Input file: /data/retarget/locomotion/raw/AMASS_SMPLXG/CMU/13/13_40_stageii.npz
Output file: ../robot/ik_based/pkl/006040.pkl
Status: SKIPPED (ALREADY EXISTS) - NO PROCESSING PERFORMED
==================================================

=== SKIPPED (ALREADY EXISTS) - 2025-10-14 22:42:07 ===
File index: 006041
Input file: /data/retarget/locomotion/raw/AMASS_SMPLXG/CMU/13/13_41_stageii.npz
Output file: ../robot/ik_based/pkl/006041.pkl
Status: SKIPPED (ALREADY EXISTS) - NO PROCESSING PERFORMED
==================================================

=== SKIPPED (ALREADY EXISTS) - 2025-10-14 22:42:07 ===
File index: 006042
Input file: /data/retarget/locomotion/raw/AMASS_SMPLXG/CMU/13/13_42_stageii.npz
Output file: ../robot/ik_based/pkl/006042.pkl
Status: SKIPPED (ALREADY EXISTS) - NO PROCESSING PERFORMED
==================================================

=== ERROR LOG - 2025-10-14 22:42:08 ===
Input file: /data/retarget/locomotion/raw/AMASS_SMPLXG/CMU/13/male_stagei.npz
Output file: ../robot/ik_based/pkl/006043.pkl
Robot type: unitree_g1
Processing time: 1.33 seconds
Error message: 'pose_body is not a file in the archive'
Error type: KeyError
==================================================

=== FILE FAILURE - 2025-10-14 22:42:08 ===
File index: 006043
File number: 44/11757
Input file: /data/retarget/locomotion/raw/AMASS_SMPLXG/CMU/13/male_stagei.npz
Output file: ../robot/ik_based/pkl/006043.pkl
Processing time: 1.33 seconds
Total file time: 1.54 seconds
Status: FAILED
==================================================

=== SKIPPED (ALREADY EXISTS) - 2025-10-14 22:42:08 ===
File index: 006044
Input file: /data/retarget/locomotion/raw/AMASS_SMPLXG/CMU/131/131_01_stageii.npz
Output file: ../robot/ik_based/pkl/006044.pkl
Status: SKIPPED (ALREADY EXISTS) - NO PROCESSING PERFORMED
==================================================

=== SKIPPED (ALREADY EXISTS) - 2025-10-14 22:42:08 ===
File index: 006045
Input file: /data/retarget/locomotion/raw/AMASS_SMPLXG/CMU/131/131_02_stageii.npz
Output file: ../robot/ik_based/pkl/006045.pkl
Status: SKIPPED (ALREADY EXISTS) - NO PROCESSING PERFORMED
==================================================

=== SKIPPED (ALREADY EXISTS) - 2025-10-14 22:42:08 ===
File index: 006046
Input file: /data/retarget/locomotion/raw/AMASS_SMPLXG/CMU/131/131_03_stageii.npz
Output file: ../robot/ik_based/pkl/006046.pkl
Status: SKIPPED (ALREADY EXISTS) - NO PROCESSING PERFORMED
==================================================

=== SKIPPED (ALREADY EXISTS) - 2025-10-14 22:42:08 ===
File index: 006047
Input file: /data/retarget/locomotion/raw/AMASS_SMPLXG/CMU/131/131_04_stageii.npz
Output file: ../robot/ik_based/pkl/006047.pkl
Status: SKIPPED (ALREADY EXISTS) - NO PROCESSING PERFORMED
==================================================

=== SKIPPED (ALREADY EXISTS) - 2025-10-14 22:42:08 ===
File index: 006048
Input file: /data/retarget/locomotion/raw/AMASS_SMPLXG/CMU/131/131_05_stageii.npz
Output file: ../robot/ik_based/pkl/006048.pkl
Status: SKIPPED (ALREADY EXISTS) - NO PROCESSING PERFORMED
==================================================

=== SKIPPED (ALREADY EXISTS) - 2025-10-14 22:42:08 ===
File index: 006049
Input file: /data/retarget/locomotion/raw/AMASS_SMPLXG/CMU/131/131_06_stageii.npz
Output file: ../robot/ik_based/pkl/006049.pkl
Status: SKIPPED (ALREADY EXISTS) - NO PROCESSING PERFORMED
==================================================

=== SKIPPED (ALREADY EXISTS) - 2025-10-14 22:42:08 ===
File index: 006050
Input file: /data/retarget/locomotion/raw/AMASS_SMPLXG/CMU/131/131_07_stageii.npz
Output file: ../robot/ik_based/pkl/006050.pkl
Status: SKIPPED (ALREADY EXISTS) - NO PROCESSING PERFORMED
==================================================

=== SKIPPED (ALREADY EXISTS) - 2025-10-14 22:42:08 ===
File index: 006051
Input file: /data/retarget/locomotion/raw/AMASS_SMPLXG/CMU/131/131_08_stageii.npz
Output file: ../robot/ik_based/pkl/006051.pkl
Status: SKIPPED (ALREADY EXISTS) - NO PROCESSING PERFORMED
==================================================

=== SKIPPED (ALREADY EXISTS) - 2025-10-14 22:42:08 ===
File index: 006052
Input file: /data/retarget/locomotion/raw/AMASS_SMPLXG/CMU/131/131_09_stageii.npz
Output file: ../robot/ik_based/pkl/006052.pkl
Status: SKIPPED (ALREADY EXISTS) - NO PROCESSING PERFORMED
==================================================

=== SKIPPED (ALREADY EXISTS) - 2025-10-14 22:42:08 ===
File index: 006053
Input file: /data/retarget/locomotion/raw/AMASS_SMPLXG/CMU/131/131_10_stageii.npz
Output file: ../robot/ik_based/pkl/006053.pkl
Status: SKIPPED (ALREADY EXISTS) - NO PROCESSING PERFORMED
==================================================

=== SKIPPED (ALREADY EXISTS) - 2025-10-14 22:42:08 ===
File index: 006054
Input file: /data/retarget/locomotion/raw/AMASS_SMPLXG/CMU/131/131_11_stageii.npz
Output file: ../robot/ik_based/pkl/006054.pkl
Status: SKIPPED (ALREADY EXISTS) - NO PROCESSING PERFORMED
==================================================

=== SKIPPED (ALREADY EXISTS) - 2025-10-14 22:42:09 ===
File index: 006055
Input file: /data/retarget/locomotion/raw/AMASS_SMPLXG/CMU/131/131_12_stageii.npz
Output file: ../robot/ik_based/pkl/006055.pkl
Status: SKIPPED (ALREADY EXISTS) - NO PROCESSING PERFORMED
==================================================

=== SKIPPED (ALREADY EXISTS) - 2025-10-14 22:42:09 ===
File index: 006056
Input file: /data/retarget/locomotion/raw/AMASS_SMPLXG/CMU/131/131_13_stageii.npz
Output file: ../robot/ik_based/pkl/006056.pkl
Status: SKIPPED (ALREADY EXISTS) - NO PROCESSING PERFORMED
==================================================

=== SKIPPED (ALREADY EXISTS) - 2025-10-14 22:42:09 ===
File index: 006057
Input file: /data/retarget/locomotion/raw/AMASS_SMPLXG/CMU/131/131_14_stageii.npz
Output file: ../robot/ik_based/pkl/006057.pkl
Status: SKIPPED (ALREADY EXISTS) - NO PROCESSING PERFORMED
==================================================

=== ERROR LOG - 2025-10-14 22:42:10 ===
Input file: /data/retarget/locomotion/raw/AMASS_SMPLXG/CMU/131/male_stagei.npz
Output file: ../robot/ik_based/pkl/006058.pkl
Robot type: unitree_g1
Processing time: 1.56 seconds
Error message: 'pose_body is not a file in the archive'
Error type: KeyError
==================================================

=== FILE FAILURE - 2025-10-14 22:42:10 ===
File index: 006058
File number: 59/11757
Input file: /data/retarget/locomotion/raw/AMASS_SMPLXG/CMU/131/male_stagei.npz
Output file: ../robot/ik_based/pkl/006058.pkl
Processing time: 1.56 seconds
Total file time: 1.80 seconds
Status: FAILED
==================================================

=== SKIPPED (ALREADY EXISTS) - 2025-10-14 22:42:10 ===
File index: 006059
Input file: /data/retarget/locomotion/raw/AMASS_SMPLXG/CMU/132/132_01_stageii.npz
Output file: ../robot/ik_based/pkl/006059.pkl
Status: SKIPPED (ALREADY EXISTS) - NO PROCESSING PERFORMED
==================================================

=== SKIPPED (ALREADY EXISTS) - 2025-10-14 22:42:10 ===
File index: 006060
Input file: /data/retarget/locomotion/raw/AMASS_SMPLXG/CMU/132/132_02_stageii.npz
Output file: ../robot/ik_based/pkl/006060.pkl
Status: SKIPPED (ALREADY EXISTS) - NO PROCESSING PERFORMED
==================================================

=== SKIPPED (ALREADY EXISTS) - 2025-10-14 22:42:10 ===
File index: 006061
Input file: /data/retarget/locomotion/raw/AMASS_SMPLXG/CMU/132/132_03_stageii.npz
Output file: ../robot/ik_based/pkl/006061.pkl
Status: SKIPPED (ALREADY EXISTS) - NO PROCESSING PERFORMED
==================================================

=== SKIPPED (ALREADY EXISTS) - 2025-10-14 22:42:10 ===
File index: 006062
Input file: /data/retarget/locomotion/raw/AMASS_SMPLXG/CMU/132/132_04_stageii.npz
Output file: ../robot/ik_based/pkl/006062.pkl
Status: SKIPPED (ALREADY EXISTS) - NO PROCESSING PERFORMED
==================================================

=== SKIPPED (ALREADY EXISTS) - 2025-10-14 22:42:10 ===
File index: 006063
Input file: /data/retarget/locomotion/raw/AMASS_SMPLXG/CMU/132/132_05_stageii.npz
Output file: ../robot/ik_based/pkl/006063.pkl
Status: SKIPPED (ALREADY EXISTS) - NO PROCESSING PERFORMED
==================================================

=== SKIPPED (ALREADY EXISTS) - 2025-10-14 22:42:10 ===
File index: 006064
Input file: /data/retarget/locomotion/raw/AMASS_SMPLXG/CMU/132/132_06_stageii.npz
Output file: ../robot/ik_based/pkl/006064.pkl
Status: SKIPPED (ALREADY EXISTS) - NO PROCESSING PERFORMED
==================================================

=== SKIPPED (ALREADY EXISTS) - 2025-10-14 22:42:10 ===
File index: 006065
Input file: /data/retarget/locomotion/raw/AMASS_SMPLXG/CMU/132/132_07_stageii.npz
Output file: ../robot/ik_based/pkl/006065.pkl
Status: SKIPPED (ALREADY EXISTS) - NO PROCESSING PERFORMED
==================================================

=== SKIPPED (ALREADY EXISTS) - 2025-10-14 22:42:10 ===
File index: 006066
Input file: /data/retarget/locomotion/raw/AMASS_SMPLXG/CMU/132/132_08_stageii.npz
Output file: ../robot/ik_based/pkl/006066.pkl
Status: SKIPPED (ALREADY EXISTS) - NO PROCESSING PERFORMED
==================================================

=== SKIPPED (ALREADY EXISTS) - 2025-10-14 22:42:10 ===
File index: 006067
Input file: /data/retarget/locomotion/raw/AMASS_SMPLXG/CMU/132/132_09_stageii.npz
Output file: ../robot/ik_based/pkl/006067.pkl
Status: SKIPPED (ALREADY EXISTS) - NO PROCESSING PERFORMED
==================================================

=== SKIPPED (ALREADY EXISTS) - 2025-10-14 22:42:10 ===
File index: 006068
Input file: /data/retarget/locomotion/raw/AMASS_SMPLXG/CMU/132/132_10_stageii.npz
Output file: ../robot/ik_based/pkl/006068.pkl
Status: SKIPPED (ALREADY EXISTS) - NO PROCESSING PERFORMED
==================================================

=== SKIPPED (ALREADY EXISTS) - 2025-10-14 22:42:10 ===
File index: 006069
Input file: /data/retarget/locomotion/raw/AMASS_SMPLXG/CMU/132/132_11_stageii.npz
Output file: ../robot/ik_based/pkl/006069.pkl
Status: SKIPPED (ALREADY EXISTS) - NO PROCESSING PERFORMED
==================================================

=== SKIPPED (ALREADY EXISTS) - 2025-10-14 22:42:10 ===
File index: 006070
Input file: /data/retarget/locomotion/raw/AMASS_SMPLXG/CMU/132/132_12_stageii.npz
Output file: ../robot/ik_based/pkl/006070.pkl
Status: SKIPPED (ALREADY EXISTS) - NO PROCESSING PERFORMED
==================================================

=== SKIPPED (ALREADY EXISTS) - 2025-10-14 22:42:10 ===
File index: 006071
Input file: /data/retarget/locomotion/raw/AMASS_SMPLXG/CMU/132/132_15_stageii.npz
Output file: ../robot/ik_based/pkl/006071.pkl
Status: SKIPPED (ALREADY EXISTS) - NO PROCESSING PERFORMED
==================================================

=== SKIPPED (ALREADY EXISTS) - 2025-10-14 22:42:10 ===
File index: 006072
Input file: /data/retarget/locomotion/raw/AMASS_SMPLXG/CMU/132/132_17_stageii.npz
Output file: ../robot/ik_based/pkl/006072.pkl
Status: SKIPPED (ALREADY EXISTS) - NO PROCESSING PERFORMED
==================================================

=== SKIPPED (ALREADY EXISTS) - 2025-10-14 22:42:10 ===
File index: 006073
Input file: /data/retarget/locomotion/raw/AMASS_SMPLXG/CMU/132/132_18_stageii.npz
Output file: ../robot/ik_based/pkl/006073.pkl
Status: SKIPPED (ALREADY EXISTS) - NO PROCESSING PERFORMED
==================================================

=== SKIPPED (ALREADY EXISTS) - 2025-10-14 22:42:10 ===
File index: 006074
Input file: /data/retarget/locomotion/raw/AMASS_SMPLXG/CMU/132/132_19_stageii.npz
Output file: ../robot/ik_based/pkl/006074.pkl
Status: SKIPPED (ALREADY EXISTS) - NO PROCESSING PERFORMED
==================================================

=== SKIPPED (ALREADY EXISTS) - 2025-10-14 22:42:10 ===
File index: 006075
Input file: /data/retarget/locomotion/raw/AMASS_SMPLXG/CMU/132/132_20_stageii.npz
Output file: ../robot/ik_based/pkl/006075.pkl
Status: SKIPPED (ALREADY EXISTS) - NO PROCESSING PERFORMED
==================================================

=== SKIPPED (ALREADY EXISTS) - 2025-10-14 22:42:10 ===
File index: 006076
Input file: /data/retarget/locomotion/raw/AMASS_SMPLXG/CMU/132/132_21_stageii.npz
Output file: ../robot/ik_based/pkl/006076.pkl
Status: SKIPPED (ALREADY EXISTS) - NO PROCESSING PERFORMED
==================================================

=== SKIPPED (ALREADY EXISTS) - 2025-10-14 22:42:10 ===
File index: 006077
Input file: /data/retarget/locomotion/raw/AMASS_SMPLXG/CMU/132/132_22_stageii.npz
Output file: ../robot/ik_based/pkl/006077.pkl
Status: SKIPPED (ALREADY EXISTS) - NO PROCESSING PERFORMED
==================================================

=== SKIPPED (ALREADY EXISTS) - 2025-10-14 22:42:10 ===
File index: 006078
Input file: /data/retarget/locomotion/raw/AMASS_SMPLXG/CMU/132/132_24_stageii.npz
Output file: ../robot/ik_based/pkl/006078.pkl
Status: SKIPPED (ALREADY EXISTS) - NO PROCESSING PERFORMED
==================================================

=== SKIPPED (ALREADY EXISTS) - 2025-10-14 22:42:10 ===
File index: 006079
Input file: /data/retarget/locomotion/raw/AMASS_SMPLXG/CMU/132/132_25_stageii.npz
Output file: ../robot/ik_based/pkl/006079.pkl
Status: SKIPPED (ALREADY EXISTS) - NO PROCESSING PERFORMED
==================================================

=== SKIPPED (ALREADY EXISTS) - 2025-10-14 22:42:10 ===
File index: 006080
Input file: /data/retarget/locomotion/raw/AMASS_SMPLXG/CMU/132/132_27_stageii.npz
Output file: ../robot/ik_based/pkl/006080.pkl
Status: SKIPPED (ALREADY EXISTS) - NO PROCESSING PERFORMED
==================================================

=== SKIPPED (ALREADY EXISTS) - 2025-10-14 22:42:10 ===
File index: 006081
Input file: /data/retarget/locomotion/raw/AMASS_SMPLXG/CMU/132/132_28_stageii.npz
Output file: ../robot/ik_based/pkl/006081.pkl
Status: SKIPPED (ALREADY EXISTS) - NO PROCESSING PERFORMED
==================================================

=== SKIPPED (ALREADY EXISTS) - 2025-10-14 22:42:10 ===
File index: 006082
Input file: /data/retarget/locomotion/raw/AMASS_SMPLXG/CMU/132/132_29_stageii.npz
Output file: ../robot/ik_based/pkl/006082.pkl
Status: SKIPPED (ALREADY EXISTS) - NO PROCESSING PERFORMED
==================================================

=== SKIPPED (ALREADY EXISTS) - 2025-10-14 22:42:10 ===
File index: 006083
Input file: /data/retarget/locomotion/raw/AMASS_SMPLXG/CMU/132/132_30_stageii.npz
Output file: ../robot/ik_based/pkl/006083.pkl
Status: SKIPPED (ALREADY EXISTS) - NO PROCESSING PERFORMED
==================================================

=== SKIPPED (ALREADY EXISTS) - 2025-10-14 22:42:10 ===
File index: 006084
Input file: /data/retarget/locomotion/raw/AMASS_SMPLXG/CMU/132/132_31_stageii.npz
Output file: ../robot/ik_based/pkl/006084.pkl
Status: SKIPPED (ALREADY EXISTS) - NO PROCESSING PERFORMED
==================================================

=== SKIPPED (ALREADY EXISTS) - 2025-10-14 22:42:10 ===
File index: 006085
Input file: /data/retarget/locomotion/raw/AMASS_SMPLXG/CMU/132/132_32_stageii.npz
Output file: ../robot/ik_based/pkl/006085.pkl
Status: SKIPPED (ALREADY EXISTS) - NO PROCESSING PERFORMED
==================================================

=== SKIPPED (ALREADY EXISTS) - 2025-10-14 22:42:10 ===
File index: 006086
Input file: /data/retarget/locomotion/raw/AMASS_SMPLXG/CMU/132/132_33_stageii.npz
Output file: ../robot/ik_based/pkl/006086.pkl
Status: SKIPPED (ALREADY EXISTS) - NO PROCESSING PERFORMED
==================================================

=== SKIPPED (ALREADY EXISTS) - 2025-10-14 22:42:10 ===
File index: 006087
Input file: /data/retarget/locomotion/raw/AMASS_SMPLXG/CMU/132/132_34_stageii.npz
Output file: ../robot/ik_based/pkl/006087.pkl
Status: SKIPPED (ALREADY EXISTS) - NO PROCESSING PERFORMED
==================================================

=== SKIPPED (ALREADY EXISTS) - 2025-10-14 22:42:10 ===
File index: 006088
Input file: /data/retarget/locomotion/raw/AMASS_SMPLXG/CMU/132/132_35_stageii.npz
Output file: ../robot/ik_based/pkl/006088.pkl
Status: SKIPPED (ALREADY EXISTS) - NO PROCESSING PERFORMED
==================================================

=== SKIPPED (ALREADY EXISTS) - 2025-10-14 22:42:10 ===
File index: 006089
Input file: /data/retarget/locomotion/raw/AMASS_SMPLXG/CMU/132/132_36_stageii.npz
Output file: ../robot/ik_based/pkl/006089.pkl
Status: SKIPPED (ALREADY EXISTS) - NO PROCESSING PERFORMED
==================================================

=== SKIPPED (ALREADY EXISTS) - 2025-10-14 22:42:10 ===
File index: 006090
Input file: /data/retarget/locomotion/raw/AMASS_SMPLXG/CMU/132/132_37_stageii.npz
Output file: ../robot/ik_based/pkl/006090.pkl
Status: SKIPPED (ALREADY EXISTS) - NO PROCESSING PERFORMED
==================================================

=== SKIPPED (ALREADY EXISTS) - 2025-10-14 22:42:10 ===
File index: 006091
Input file: /data/retarget/locomotion/raw/AMASS_SMPLXG/CMU/132/132_38_stageii.npz
Output file: ../robot/ik_based/pkl/006091.pkl
Status: SKIPPED (ALREADY EXISTS) - NO PROCESSING PERFORMED
==================================================

=== SKIPPED (ALREADY EXISTS) - 2025-10-14 22:42:10 ===
File index: 006092
Input file: /data/retarget/locomotion/raw/AMASS_SMPLXG/CMU/132/132_39_stageii.npz
Output file: ../robot/ik_based/pkl/006092.pkl
Status: SKIPPED (ALREADY EXISTS) - NO PROCESSING PERFORMED
==================================================

=== SKIPPED (ALREADY EXISTS) - 2025-10-14 22:42:10 ===
File index: 006093
Input file: /data/retarget/locomotion/raw/AMASS_SMPLXG/CMU/132/132_40_stageii.npz
Output file: ../robot/ik_based/pkl/006093.pkl
Status: SKIPPED (ALREADY EXISTS) - NO PROCESSING PERFORMED
==================================================

=== SKIPPED (ALREADY EXISTS) - 2025-10-14 22:42:10 ===
File index: 006094
Input file: /data/retarget/locomotion/raw/AMASS_SMPLXG/CMU/132/132_41_stageii.npz
Output file: ../robot/ik_based/pkl/006094.pkl
Status: SKIPPED (ALREADY EXISTS) - NO PROCESSING PERFORMED
==================================================

=== SKIPPED (ALREADY EXISTS) - 2025-10-14 22:42:10 ===
File index: 006095
Input file: /data/retarget/locomotion/raw/AMASS_SMPLXG/CMU/132/132_42_stageii.npz
Output file: ../robot/ik_based/pkl/006095.pkl
Status: SKIPPED (ALREADY EXISTS) - NO PROCESSING PERFORMED
==================================================

=== SKIPPED (ALREADY EXISTS) - 2025-10-14 22:42:10 ===
File index: 006096
Input file: /data/retarget/locomotion/raw/AMASS_SMPLXG/CMU/132/132_43_stageii.npz
Output file: ../robot/ik_based/pkl/006096.pkl
Status: SKIPPED (ALREADY EXISTS) - NO PROCESSING PERFORMED
==================================================

=== SKIPPED (ALREADY EXISTS) - 2025-10-14 22:42:10 ===
File index: 006097
Input file: /data/retarget/locomotion/raw/AMASS_SMPLXG/CMU/132/132_44_stageii.npz
Output file: ../robot/ik_based/pkl/006097.pkl
Status: SKIPPED (ALREADY EXISTS) - NO PROCESSING PERFORMED
==================================================

=== SKIPPED (ALREADY EXISTS) - 2025-10-14 22:42:10 ===
File index: 006098
Input file: /data/retarget/locomotion/raw/AMASS_SMPLXG/CMU/132/132_45_stageii.npz
Output file: ../robot/ik_based/pkl/006098.pkl
Status: SKIPPED (ALREADY EXISTS) - NO PROCESSING PERFORMED
==================================================

=== SKIPPED (ALREADY EXISTS) - 2025-10-14 22:42:10 ===
File index: 006099
Input file: /data/retarget/locomotion/raw/AMASS_SMPLXG/CMU/132/132_46_stageii.npz
Output file: ../robot/ik_based/pkl/006099.pkl
Status: SKIPPED (ALREADY EXISTS) - NO PROCESSING PERFORMED
==================================================

=== SKIPPED (ALREADY EXISTS) - 2025-10-14 22:42:10 ===
File index: 006100
Input file: /data/retarget/locomotion/raw/AMASS_SMPLXG/CMU/132/132_47_stageii.npz
Output file: ../robot/ik_based/pkl/006100.pkl
Status: SKIPPED (ALREADY EXISTS) - NO PROCESSING PERFORMED
==================================================

=== SKIPPED (ALREADY EXISTS) - 2025-10-14 22:42:10 ===
File index: 006101
Input file: /data/retarget/locomotion/raw/AMASS_SMPLXG/CMU/132/132_48_stageii.npz
Output file: ../robot/ik_based/pkl/006101.pkl
Status: SKIPPED (ALREADY EXISTS) - NO PROCESSING PERFORMED
==================================================

=== SKIPPED (ALREADY EXISTS) - 2025-10-14 22:42:10 ===
File index: 006102
Input file: /data/retarget/locomotion/raw/AMASS_SMPLXG/CMU/132/132_50_stageii.npz
Output file: ../robot/ik_based/pkl/006102.pkl
Status: SKIPPED (ALREADY EXISTS) - NO PROCESSING PERFORMED
==================================================

=== SKIPPED (ALREADY EXISTS) - 2025-10-14 22:42:10 ===
File index: 006103
Input file: /data/retarget/locomotion/raw/AMASS_SMPLXG/CMU/132/132_51_stageii.npz
Output file: ../robot/ik_based/pkl/006103.pkl
Status: SKIPPED (ALREADY EXISTS) - NO PROCESSING PERFORMED
==================================================

=== SKIPPED (ALREADY EXISTS) - 2025-10-14 22:42:10 ===
File index: 006104
Input file: /data/retarget/locomotion/raw/AMASS_SMPLXG/CMU/132/132_52_stageii.npz
Output file: ../robot/ik_based/pkl/006104.pkl
Status: SKIPPED (ALREADY EXISTS) - NO PROCESSING PERFORMED
==================================================

=== SKIPPED (ALREADY EXISTS) - 2025-10-14 22:42:10 ===
File index: 006105
Input file: /data/retarget/locomotion/raw/AMASS_SMPLXG/CMU/132/132_53_stageii.npz
Output file: ../robot/ik_based/pkl/006105.pkl
Status: SKIPPED (ALREADY EXISTS) - NO PROCESSING PERFORMED
==================================================

=== SKIPPED (ALREADY EXISTS) - 2025-10-14 22:42:10 ===
File index: 006106
Input file: /data/retarget/locomotion/raw/AMASS_SMPLXG/CMU/132/132_54_stageii.npz
Output file: ../robot/ik_based/pkl/006106.pkl
Status: SKIPPED (ALREADY EXISTS) - NO PROCESSING PERFORMED
==================================================

=== SKIPPED (ALREADY EXISTS) - 2025-10-14 22:42:10 ===
File index: 006107
Input file: /data/retarget/locomotion/raw/AMASS_SMPLXG/CMU/132/132_55_stageii.npz
Output file: ../robot/ik_based/pkl/006107.pkl
Status: SKIPPED (ALREADY EXISTS) - NO PROCESSING PERFORMED
==================================================

=== ERROR LOG - 2025-10-14 22:42:12 ===
Input file: /data/retarget/locomotion/raw/AMASS_SMPLXG/CMU/132/male_stagei.npz
Output file: ../robot/ik_based/pkl/006108.pkl
Robot type: unitree_g1
Processing time: 1.13 seconds
Error message: 'pose_body is not a file in the archive'
Error type: KeyError
==================================================

=== FILE FAILURE - 2025-10-14 22:42:12 ===
File index: 006108
File number: 109/11757
Input file: /data/retarget/locomotion/raw/AMASS_SMPLXG/CMU/132/male_stagei.npz
Output file: ../robot/ik_based/pkl/006108.pkl
Processing time: 1.13 seconds
Total file time: 1.24 seconds
Status: FAILED
==================================================

=== SKIPPED (ALREADY EXISTS) - 2025-10-14 22:42:12 ===
File index: 006109
Input file: /data/retarget/locomotion/raw/AMASS_SMPLXG/CMU/133/133_01_stageii.npz
Output file: ../robot/ik_based/pkl/006109.pkl
Status: SKIPPED (ALREADY EXISTS) - NO PROCESSING PERFORMED
==================================================

=== SKIPPED (ALREADY EXISTS) - 2025-10-14 22:42:12 ===
File index: 006110
Input file: /data/retarget/locomotion/raw/AMASS_SMPLXG/CMU/133/133_02_stageii.npz
Output file: ../robot/ik_based/pkl/006110.pkl
Status: SKIPPED (ALREADY EXISTS) - NO PROCESSING PERFORMED
==================================================

=== SKIPPED (ALREADY EXISTS) - 2025-10-14 22:42:12 ===
File index: 006111
Input file: /data/retarget/locomotion/raw/AMASS_SMPLXG/CMU/133/133_03_stageii.npz
Output file: ../robot/ik_based/pkl/006111.pkl
Status: SKIPPED (ALREADY EXISTS) - NO PROCESSING PERFORMED
==================================================

=== SKIPPED (ALREADY EXISTS) - 2025-10-14 22:42:12 ===
File index: 006112
Input file: /data/retarget/locomotion/raw/AMASS_SMPLXG/CMU/133/133_04_stageii.npz
Output file: ../robot/ik_based/pkl/006112.pkl
Status: SKIPPED (ALREADY EXISTS) - NO PROCESSING PERFORMED
==================================================

=== SKIPPED (ALREADY EXISTS) - 2025-10-14 22:42:12 ===
File index: 006113
Input file: /data/retarget/locomotion/raw/AMASS_SMPLXG/CMU/133/133_05_stageii.npz
Output file: ../robot/ik_based/pkl/006113.pkl
Status: SKIPPED (ALREADY EXISTS) - NO PROCESSING PERFORMED
==================================================

=== SKIPPED (ALREADY EXISTS) - 2025-10-14 22:42:12 ===
File index: 006114
Input file: /data/retarget/locomotion/raw/AMASS_SMPLXG/CMU/133/133_06_stageii.npz
Output file: ../robot/ik_based/pkl/006114.pkl
Status: SKIPPED (ALREADY EXISTS) - NO PROCESSING PERFORMED
==================================================

=== SKIPPED (ALREADY EXISTS) - 2025-10-14 22:42:12 ===
File index: 006115
Input file: /data/retarget/locomotion/raw/AMASS_SMPLXG/CMU/133/133_07_stageii.npz
Output file: ../robot/ik_based/pkl/006115.pkl
Status: SKIPPED (ALREADY EXISTS) - NO PROCESSING PERFORMED
==================================================

=== SKIPPED (ALREADY EXISTS) - 2025-10-14 22:42:12 ===
File index: 006116
Input file: /data/retarget/locomotion/raw/AMASS_SMPLXG/CMU/133/133_08_stageii.npz
Output file: ../robot/ik_based/pkl/006116.pkl
Status: SKIPPED (ALREADY EXISTS) - NO PROCESSING PERFORMED
==================================================

=== SKIPPED (ALREADY EXISTS) - 2025-10-14 22:42:12 ===
File index: 006117
Input file: /data/retarget/locomotion/raw/AMASS_SMPLXG/CMU/133/133_09_stageii.npz
Output file: ../robot/ik_based/pkl/006117.pkl
Status: SKIPPED (ALREADY EXISTS) - NO PROCESSING PERFORMED
==================================================

=== SKIPPED (ALREADY EXISTS) - 2025-10-14 22:42:12 ===
File index: 006118
Input file: /data/retarget/locomotion/raw/AMASS_SMPLXG/CMU/133/133_10_stageii.npz
Output file: ../robot/ik_based/pkl/006118.pkl
Status: SKIPPED (ALREADY EXISTS) - NO PROCESSING PERFORMED
==================================================

=== SKIPPED (ALREADY EXISTS) - 2025-10-14 22:42:12 ===
File index: 006119
Input file: /data/retarget/locomotion/raw/AMASS_SMPLXG/CMU/133/133_11_stageii.npz
Output file: ../robot/ik_based/pkl/006119.pkl
Status: SKIPPED (ALREADY EXISTS) - NO PROCESSING PERFORMED
==================================================

=== SKIPPED (ALREADY EXISTS) - 2025-10-14 22:42:12 ===
File index: 006120
Input file: /data/retarget/locomotion/raw/AMASS_SMPLXG/CMU/133/133_12_stageii.npz
Output file: ../robot/ik_based/pkl/006120.pkl
Status: SKIPPED (ALREADY EXISTS) - NO PROCESSING PERFORMED
==================================================

=== SKIPPED (ALREADY EXISTS) - 2025-10-14 22:42:12 ===
File index: 006121
Input file: /data/retarget/locomotion/raw/AMASS_SMPLXG/CMU/133/133_13_stageii.npz
Output file: ../robot/ik_based/pkl/006121.pkl
Status: SKIPPED (ALREADY EXISTS) - NO PROCESSING PERFORMED
==================================================

=== SKIPPED (ALREADY EXISTS) - 2025-10-14 22:42:12 ===
File index: 006122
Input file: /data/retarget/locomotion/raw/AMASS_SMPLXG/CMU/133/133_14_stageii.npz
Output file: ../robot/ik_based/pkl/006122.pkl
Status: SKIPPED (ALREADY EXISTS) - NO PROCESSING PERFORMED
==================================================

=== SKIPPED (ALREADY EXISTS) - 2025-10-14 22:42:12 ===
File index: 006123
Input file: /data/retarget/locomotion/raw/AMASS_SMPLXG/CMU/133/133_15_stageii.npz
Output file: ../robot/ik_based/pkl/006123.pkl
Status: SKIPPED (ALREADY EXISTS) - NO PROCESSING PERFORMED
==================================================

=== SKIPPED (ALREADY EXISTS) - 2025-10-14 22:42:12 ===
File index: 006124
Input file: /data/retarget/locomotion/raw/AMASS_SMPLXG/CMU/133/133_16_stageii.npz
Output file: ../robot/ik_based/pkl/006124.pkl
Status: SKIPPED (ALREADY EXISTS) - NO PROCESSING PERFORMED
==================================================

=== SKIPPED (ALREADY EXISTS) - 2025-10-14 22:42:12 ===
File index: 006125
Input file: /data/retarget/locomotion/raw/AMASS_SMPLXG/CMU/133/133_17_stageii.npz
Output file: ../robot/ik_based/pkl/006125.pkl
Status: SKIPPED (ALREADY EXISTS) - NO PROCESSING PERFORMED
==================================================

=== SKIPPED (ALREADY EXISTS) - 2025-10-14 22:42:12 ===
File index: 006126
Input file: /data/retarget/locomotion/raw/AMASS_SMPLXG/CMU/133/133_18_stageii.npz
Output file: ../robot/ik_based/pkl/006126.pkl
Status: SKIPPED (ALREADY EXISTS) - NO PROCESSING PERFORMED
==================================================

=== SKIPPED (ALREADY EXISTS) - 2025-10-14 22:42:12 ===
File index: 006127
Input file: /data/retarget/locomotion/raw/AMASS_SMPLXG/CMU/133/133_19_stageii.npz
Output file: ../robot/ik_based/pkl/006127.pkl
Status: SKIPPED (ALREADY EXISTS) - NO PROCESSING PERFORMED
==================================================

=== SKIPPED (ALREADY EXISTS) - 2025-10-14 22:42:12 ===
File index: 006128
Input file: /data/retarget/locomotion/raw/AMASS_SMPLXG/CMU/133/133_20_stageii.npz
Output file: ../robot/ik_based/pkl/006128.pkl
Status: SKIPPED (ALREADY EXISTS) - NO PROCESSING PERFORMED
==================================================

=== SKIPPED (ALREADY EXISTS) - 2025-10-14 22:42:12 ===
File index: 006129
Input file: /data/retarget/locomotion/raw/AMASS_SMPLXG/CMU/133/133_21_stageii.npz
Output file: ../robot/ik_based/pkl/006129.pkl
Status: SKIPPED (ALREADY EXISTS) - NO PROCESSING PERFORMED
==================================================

=== SKIPPED (ALREADY EXISTS) - 2025-10-14 22:42:12 ===
File index: 006130
Input file: /data/retarget/locomotion/raw/AMASS_SMPLXG/CMU/133/133_22_stageii.npz
Output file: ../robot/ik_based/pkl/006130.pkl
Status: SKIPPED (ALREADY EXISTS) - NO PROCESSING PERFORMED
==================================================

=== SKIPPED (ALREADY EXISTS) - 2025-10-14 22:42:12 ===
File index: 006131
Input file: /data/retarget/locomotion/raw/AMASS_SMPLXG/CMU/133/133_23_stageii.npz
Output file: ../robot/ik_based/pkl/006131.pkl
Status: SKIPPED (ALREADY EXISTS) - NO PROCESSING PERFORMED
==================================================

=== SKIPPED (ALREADY EXISTS) - 2025-10-14 22:42:12 ===
File index: 006132
Input file: /data/retarget/locomotion/raw/AMASS_SMPLXG/CMU/133/133_24_stageii.npz
Output file: ../robot/ik_based/pkl/006132.pkl
Status: SKIPPED (ALREADY EXISTS) - NO PROCESSING PERFORMED
==================================================

=== SKIPPED (ALREADY EXISTS) - 2025-10-14 22:42:12 ===
File index: 006133
Input file: /data/retarget/locomotion/raw/AMASS_SMPLXG/CMU/133/133_25_stageii.npz
Output file: ../robot/ik_based/pkl/006133.pkl
Status: SKIPPED (ALREADY EXISTS) - NO PROCESSING PERFORMED
==================================================

=== SKIPPED (ALREADY EXISTS) - 2025-10-14 22:42:12 ===
File index: 006134
Input file: /data/retarget/locomotion/raw/AMASS_SMPLXG/CMU/133/133_26_stageii.npz
Output file: ../robot/ik_based/pkl/006134.pkl
Status: SKIPPED (ALREADY EXISTS) - NO PROCESSING PERFORMED
==================================================

=== ERROR LOG - 2025-10-14 22:42:13 ===
Input file: /data/retarget/locomotion/raw/AMASS_SMPLXG/CMU/133/male_stagei.npz
Output file: ../robot/ik_based/pkl/006135.pkl
Robot type: unitree_g1
Processing time: 1.15 seconds
Error message: 'pose_body is not a file in the archive'
Error type: KeyError
==================================================

=== FILE FAILURE - 2025-10-14 22:42:13 ===
File index: 006135
File number: 136/11757
Input file: /data/retarget/locomotion/raw/AMASS_SMPLXG/CMU/133/male_stagei.npz
Output file: ../robot/ik_based/pkl/006135.pkl
Processing time: 1.15 seconds
Total file time: 1.32 seconds
Status: FAILED
==================================================

=== SKIPPED (ALREADY EXISTS) - 2025-10-14 22:42:13 ===
File index: 006136
Input file: /data/retarget/locomotion/raw/AMASS_SMPLXG/CMU/135/135_02_stageii.npz
Output file: ../robot/ik_based/pkl/006136.pkl
Status: SKIPPED (ALREADY EXISTS) - NO PROCESSING PERFORMED
==================================================

=== SKIPPED (ALREADY EXISTS) - 2025-10-14 22:42:13 ===
File index: 006137
Input file: /data/retarget/locomotion/raw/AMASS_SMPLXG/CMU/135/135_03_stageii.npz
Output file: ../robot/ik_based/pkl/006137.pkl
Status: SKIPPED (ALREADY EXISTS) - NO PROCESSING PERFORMED
==================================================

=== SKIPPED (ALREADY EXISTS) - 2025-10-14 22:42:13 ===
File index: 006138
Input file: /data/retarget/locomotion/raw/AMASS_SMPLXG/CMU/135/135_04_stageii.npz
Output file: ../robot/ik_based/pkl/006138.pkl
Status: SKIPPED (ALREADY EXISTS) - NO PROCESSING PERFORMED
==================================================

=== SKIPPED (ALREADY EXISTS) - 2025-10-14 22:42:13 ===
File index: 006139
Input file: /data/retarget/locomotion/raw/AMASS_SMPLXG/CMU/135/135_05_stageii.npz
Output file: ../robot/ik_based/pkl/006139.pkl
Status: SKIPPED (ALREADY EXISTS) - NO PROCESSING PERFORMED
==================================================

=== SKIPPED (ALREADY EXISTS) - 2025-10-14 22:42:13 ===
File index: 006140
Input file: /data/retarget/locomotion/raw/AMASS_SMPLXG/CMU/135/135_06_stageii.npz
Output file: ../robot/ik_based/pkl/006140.pkl
Status: SKIPPED (ALREADY EXISTS) - NO PROCESSING PERFORMED
==================================================

=== SKIPPED (ALREADY EXISTS) - 2025-10-14 22:42:13 ===
File index: 006141
Input file: /data/retarget/locomotion/raw/AMASS_SMPLXG/CMU/135/135_07_stageii.npz
Output file: ../robot/ik_based/pkl/006141.pkl
Status: SKIPPED (ALREADY EXISTS) - NO PROCESSING PERFORMED
==================================================

=== SKIPPED (ALREADY EXISTS) - 2025-10-14 22:42:13 ===
File index: 006142
Input file: /data/retarget/locomotion/raw/AMASS_SMPLXG/CMU/135/135_08_stageii.npz
Output file: ../robot/ik_based/pkl/006142.pkl
Status: SKIPPED (ALREADY EXISTS) - NO PROCESSING PERFORMED
==================================================

=== SKIPPED (ALREADY EXISTS) - 2025-10-14 22:42:13 ===
File index: 006143
Input file: /data/retarget/locomotion/raw/AMASS_SMPLXG/CMU/135/135_09_stageii.npz
Output file: ../robot/ik_based/pkl/006143.pkl
Status: SKIPPED (ALREADY EXISTS) - NO PROCESSING PERFORMED
==================================================

=== SKIPPED (ALREADY EXISTS) - 2025-10-14 22:42:13 ===
File index: 006144
Input file: /data/retarget/locomotion/raw/AMASS_SMPLXG/CMU/135/135_10_stageii.npz
Output file: ../robot/ik_based/pkl/006144.pkl
Status: SKIPPED (ALREADY EXISTS) - NO PROCESSING PERFORMED
==================================================

=== SKIPPED (ALREADY EXISTS) - 2025-10-14 22:42:13 ===
File index: 006145
Input file: /data/retarget/locomotion/raw/AMASS_SMPLXG/CMU/135/135_11_stageii.npz
Output file: ../robot/ik_based/pkl/006145.pkl
Status: SKIPPED (ALREADY EXISTS) - NO PROCESSING PERFORMED
==================================================

=== ERROR LOG - 2025-10-14 22:42:14 ===
Input file: /data/retarget/locomotion/raw/AMASS_SMPLXG/CMU/135/male_stagei.npz
Output file: ../robot/ik_based/pkl/006146.pkl
Robot type: unitree_g1
Processing time: 1.07 seconds
Error message: 'pose_body is not a file in the archive'
Error type: KeyError
==================================================

=== FILE FAILURE - 2025-10-14 22:42:14 ===
File index: 006146
File number: 147/11757
Input file: /data/retarget/locomotion/raw/AMASS_SMPLXG/CMU/135/male_stagei.npz
Output file: ../robot/ik_based/pkl/006146.pkl
Processing time: 1.07 seconds
Total file time: 1.18 seconds
Status: FAILED
==================================================

=== SKIPPED (ALREADY EXISTS) - 2025-10-14 22:42:14 ===
File index: 006147
Input file: /data/retarget/locomotion/raw/AMASS_SMPLXG/CMU/136/136_01_stageii.npz
Output file: ../robot/ik_based/pkl/006147.pkl
Status: SKIPPED (ALREADY EXISTS) - NO PROCESSING PERFORMED
==================================================

=== SKIPPED (ALREADY EXISTS) - 2025-10-14 22:42:14 ===
File index: 006148
Input file: /data/retarget/locomotion/raw/AMASS_SMPLXG/CMU/136/136_02_stageii.npz
Output file: ../robot/ik_based/pkl/006148.pkl
Status: SKIPPED (ALREADY EXISTS) - NO PROCESSING PERFORMED
==================================================

=== SKIPPED (ALREADY EXISTS) - 2025-10-14 22:42:14 ===
File index: 006149
Input file: /data/retarget/locomotion/raw/AMASS_SMPLXG/CMU/136/136_03_stageii.npz
Output file: ../robot/ik_based/pkl/006149.pkl
Status: SKIPPED (ALREADY EXISTS) - NO PROCESSING PERFORMED
==================================================

=== SKIPPED (ALREADY EXISTS) - 2025-10-14 22:42:14 ===
File index: 006150
Input file: /data/retarget/locomotion/raw/AMASS_SMPLXG/CMU/136/136_04_stageii.npz
Output file: ../robot/ik_based/pkl/006150.pkl
Status: SKIPPED (ALREADY EXISTS) - NO PROCESSING PERFORMED
==================================================

=== SKIPPED (ALREADY EXISTS) - 2025-10-14 22:42:14 ===
File index: 006151
Input file: /data/retarget/locomotion/raw/AMASS_SMPLXG/CMU/136/136_05_stageii.npz
Output file: ../robot/ik_based/pkl/006151.pkl
Status: SKIPPED (ALREADY EXISTS) - NO PROCESSING PERFORMED
==================================================

=== SKIPPED (ALREADY EXISTS) - 2025-10-14 22:42:14 ===
File index: 006152
Input file: /data/retarget/locomotion/raw/AMASS_SMPLXG/CMU/136/136_06_stageii.npz
Output file: ../robot/ik_based/pkl/006152.pkl
Status: SKIPPED (ALREADY EXISTS) - NO PROCESSING PERFORMED
==================================================

=== SKIPPED (ALREADY EXISTS) - 2025-10-14 22:42:14 ===
File index: 006153
Input file: /data/retarget/locomotion/raw/AMASS_SMPLXG/CMU/136/136_07_stageii.npz
Output file: ../robot/ik_based/pkl/006153.pkl
Status: SKIPPED (ALREADY EXISTS) - NO PROCESSING PERFORMED
==================================================

=== SKIPPED (ALREADY EXISTS) - 2025-10-14 22:42:14 ===
File index: 006154
Input file: /data/retarget/locomotion/raw/AMASS_SMPLXG/CMU/136/136_08_stageii.npz
Output file: ../robot/ik_based/pkl/006154.pkl
Status: SKIPPED (ALREADY EXISTS) - NO PROCESSING PERFORMED
==================================================

=== SKIPPED (ALREADY EXISTS) - 2025-10-14 22:42:14 ===
File index: 006155
Input file: /data/retarget/locomotion/raw/AMASS_SMPLXG/CMU/136/136_09_stageii.npz
Output file: ../robot/ik_based/pkl/006155.pkl
Status: SKIPPED (ALREADY EXISTS) - NO PROCESSING PERFORMED
==================================================

=== SKIPPED (ALREADY EXISTS) - 2025-10-14 22:42:14 ===
File index: 006156
Input file: /data/retarget/locomotion/raw/AMASS_SMPLXG/CMU/136/136_11_stageii.npz
Output file: ../robot/ik_based/pkl/006156.pkl
Status: SKIPPED (ALREADY EXISTS) - NO PROCESSING PERFORMED
==================================================

=== SKIPPED (ALREADY EXISTS) - 2025-10-14 22:42:14 ===
File index: 006157
Input file: /data/retarget/locomotion/raw/AMASS_SMPLXG/CMU/136/136_12_stageii.npz
Output file: ../robot/ik_based/pkl/006157.pkl
Status: SKIPPED (ALREADY EXISTS) - NO PROCESSING PERFORMED
==================================================

=== SKIPPED (ALREADY EXISTS) - 2025-10-14 22:42:14 ===
File index: 006158
Input file: /data/retarget/locomotion/raw/AMASS_SMPLXG/CMU/136/136_13_stageii.npz
Output file: ../robot/ik_based/pkl/006158.pkl
Status: SKIPPED (ALREADY EXISTS) - NO PROCESSING PERFORMED
==================================================

=== SKIPPED (ALREADY EXISTS) - 2025-10-14 22:42:14 ===
File index: 006159
Input file: /data/retarget/locomotion/raw/AMASS_SMPLXG/CMU/136/136_14_stageii.npz
Output file: ../robot/ik_based/pkl/006159.pkl
Status: SKIPPED (ALREADY EXISTS) - NO PROCESSING PERFORMED
==================================================

=== SKIPPED (ALREADY EXISTS) - 2025-10-14 22:42:14 ===
File index: 006160
Input file: /data/retarget/locomotion/raw/AMASS_SMPLXG/CMU/136/136_15_stageii.npz
Output file: ../robot/ik_based/pkl/006160.pkl
Status: SKIPPED (ALREADY EXISTS) - NO PROCESSING PERFORMED
==================================================

=== SKIPPED (ALREADY EXISTS) - 2025-10-14 22:42:14 ===
File index: 006161
Input file: /data/retarget/locomotion/raw/AMASS_SMPLXG/CMU/136/136_16_stageii.npz
Output file: ../robot/ik_based/pkl/006161.pkl
Status: SKIPPED (ALREADY EXISTS) - NO PROCESSING PERFORMED
==================================================

=== SKIPPED (ALREADY EXISTS) - 2025-10-14 22:42:14 ===
File index: 006162
Input file: /data/retarget/locomotion/raw/AMASS_SMPLXG/CMU/136/136_17_stageii.npz
Output file: ../robot/ik_based/pkl/006162.pkl
Status: SKIPPED (ALREADY EXISTS) - NO PROCESSING PERFORMED
==================================================

=== SKIPPED (ALREADY EXISTS) - 2025-10-14 22:42:14 ===
File index: 006163
Input file: /data/retarget/locomotion/raw/AMASS_SMPLXG/CMU/136/136_18_stageii.npz
Output file: ../robot/ik_based/pkl/006163.pkl
Status: SKIPPED (ALREADY EXISTS) - NO PROCESSING PERFORMED
==================================================

=== SKIPPED (ALREADY EXISTS) - 2025-10-14 22:42:14 ===
File index: 006164
Input file: /data/retarget/locomotion/raw/AMASS_SMPLXG/CMU/136/136_20_stageii.npz
Output file: ../robot/ik_based/pkl/006164.pkl
Status: SKIPPED (ALREADY EXISTS) - NO PROCESSING PERFORMED
==================================================

=== SKIPPED (ALREADY EXISTS) - 2025-10-14 22:42:14 ===
File index: 006165
Input file: /data/retarget/locomotion/raw/AMASS_SMPLXG/CMU/136/136_21_stageii.npz
Output file: ../robot/ik_based/pkl/006165.pkl
Status: SKIPPED (ALREADY EXISTS) - NO PROCESSING PERFORMED
==================================================

=== SKIPPED (ALREADY EXISTS) - 2025-10-14 22:42:14 ===
File index: 006166
Input file: /data/retarget/locomotion/raw/AMASS_SMPLXG/CMU/136/136_22_stageii.npz
Output file: ../robot/ik_based/pkl/006166.pkl
Status: SKIPPED (ALREADY EXISTS) - NO PROCESSING PERFORMED
==================================================

=== SKIPPED (ALREADY EXISTS) - 2025-10-14 22:42:14 ===
File index: 006167
Input file: /data/retarget/locomotion/raw/AMASS_SMPLXG/CMU/136/136_23_stageii.npz
Output file: ../robot/ik_based/pkl/006167.pkl
Status: SKIPPED (ALREADY EXISTS) - NO PROCESSING PERFORMED
==================================================

=== SKIPPED (ALREADY EXISTS) - 2025-10-14 22:42:14 ===
File index: 006168
Input file: /data/retarget/locomotion/raw/AMASS_SMPLXG/CMU/136/136_24_stageii.npz
Output file: ../robot/ik_based/pkl/006168.pkl
Status: SKIPPED (ALREADY EXISTS) - NO PROCESSING PERFORMED
==================================================

=== SKIPPED (ALREADY EXISTS) - 2025-10-14 22:42:14 ===
File index: 006169
Input file: /data/retarget/locomotion/raw/AMASS_SMPLXG/CMU/136/136_25_stageii.npz
Output file: ../robot/ik_based/pkl/006169.pkl
Status: SKIPPED (ALREADY EXISTS) - NO PROCESSING PERFORMED
==================================================

=== SKIPPED (ALREADY EXISTS) - 2025-10-14 22:42:14 ===
File index: 006170
Input file: /data/retarget/locomotion/raw/AMASS_SMPLXG/CMU/136/136_26_stageii.npz
Output file: ../robot/ik_based/pkl/006170.pkl
Status: SKIPPED (ALREADY EXISTS) - NO PROCESSING PERFORMED
==================================================

=== SKIPPED (ALREADY EXISTS) - 2025-10-14 22:42:14 ===
File index: 006171
Input file: /data/retarget/locomotion/raw/AMASS_SMPLXG/CMU/136/136_27_stageii.npz
Output file: ../robot/ik_based/pkl/006171.pkl
Status: SKIPPED (ALREADY EXISTS) - NO PROCESSING PERFORMED
==================================================

=== SKIPPED (ALREADY EXISTS) - 2025-10-14 22:42:14 ===
File index: 006172
Input file: /data/retarget/locomotion/raw/AMASS_SMPLXG/CMU/136/136_29_stageii.npz
Output file: ../robot/ik_based/pkl/006172.pkl
Status: SKIPPED (ALREADY EXISTS) - NO PROCESSING PERFORMED
==================================================

=== SKIPPED (ALREADY EXISTS) - 2025-10-14 22:42:14 ===
File index: 006173
Input file: /data/retarget/locomotion/raw/AMASS_SMPLXG/CMU/136/136_30_stageii.npz
Output file: ../robot/ik_based/pkl/006173.pkl
Status: SKIPPED (ALREADY EXISTS) - NO PROCESSING PERFORMED
==================================================

=== SKIPPED (ALREADY EXISTS) - 2025-10-14 22:42:14 ===
File index: 006174
Input file: /data/retarget/locomotion/raw/AMASS_SMPLXG/CMU/136/136_31_stageii.npz
Output file: ../robot/ik_based/pkl/006174.pkl
Status: SKIPPED (ALREADY EXISTS) - NO PROCESSING PERFORMED
==================================================

=== SKIPPED (ALREADY EXISTS) - 2025-10-14 22:42:14 ===
File index: 006175
Input file: /data/retarget/locomotion/raw/AMASS_SMPLXG/CMU/136/136_32_stageii.npz
Output file: ../robot/ik_based/pkl/006175.pkl
Status: SKIPPED (ALREADY EXISTS) - NO PROCESSING PERFORMED
==================================================

=== SKIPPED (ALREADY EXISTS) - 2025-10-14 22:42:14 ===
File index: 006176
Input file: /data/retarget/locomotion/raw/AMASS_SMPLXG/CMU/136/136_33_stageii.npz
Output file: ../robot/ik_based/pkl/006176.pkl
Status: SKIPPED (ALREADY EXISTS) - NO PROCESSING PERFORMED
==================================================

=== ERROR LOG - 2025-10-14 22:42:16 ===
Input file: /data/retarget/locomotion/raw/AMASS_SMPLXG/CMU/136/male_stagei.npz
Output file: ../robot/ik_based/pkl/006177.pkl
Robot type: unitree_g1
Processing time: 1.10 seconds
Error message: 'pose_body is not a file in the archive'
Error type: KeyError
==================================================

=== FILE FAILURE - 2025-10-14 22:42:16 ===
File index: 006177
File number: 178/11757
Input file: /data/retarget/locomotion/raw/AMASS_SMPLXG/CMU/136/male_stagei.npz
Output file: ../robot/ik_based/pkl/006177.pkl
Processing time: 1.10 seconds
Total file time: 1.21 seconds
Status: FAILED
==================================================

=== SKIPPED (ALREADY EXISTS) - 2025-10-14 22:42:16 ===
File index: 006178
Input file: /data/retarget/locomotion/raw/AMASS_SMPLXG/CMU/137/137_01_stageii.npz
Output file: ../robot/ik_based/pkl/006178.pkl
Status: SKIPPED (ALREADY EXISTS) - NO PROCESSING PERFORMED
==================================================

=== SKIPPED (ALREADY EXISTS) - 2025-10-14 22:42:16 ===
File index: 006179
Input file: /data/retarget/locomotion/raw/AMASS_SMPLXG/CMU/137/137_02_stageii.npz
Output file: ../robot/ik_based/pkl/006179.pkl
Status: SKIPPED (ALREADY EXISTS) - NO PROCESSING PERFORMED
==================================================

=== SKIPPED (ALREADY EXISTS) - 2025-10-14 22:42:16 ===
File index: 006180
Input file: /data/retarget/locomotion/raw/AMASS_SMPLXG/CMU/137/137_03_stageii.npz
Output file: ../robot/ik_based/pkl/006180.pkl
Status: SKIPPED (ALREADY EXISTS) - NO PROCESSING PERFORMED
==================================================

=== SKIPPED (ALREADY EXISTS) - 2025-10-14 22:42:16 ===
File index: 006181
Input file: /data/retarget/locomotion/raw/AMASS_SMPLXG/CMU/137/137_04_stageii.npz
Output file: ../robot/ik_based/pkl/006181.pkl
Status: SKIPPED (ALREADY EXISTS) - NO PROCESSING PERFORMED
==================================================

=== SKIPPED (ALREADY EXISTS) - 2025-10-14 22:42:16 ===
File index: 006182
Input file: /data/retarget/locomotion/raw/AMASS_SMPLXG/CMU/137/137_05_stageii.npz
Output file: ../robot/ik_based/pkl/006182.pkl
Status: SKIPPED (ALREADY EXISTS) - NO PROCESSING PERFORMED
==================================================

=== SKIPPED (ALREADY EXISTS) - 2025-10-14 22:42:16 ===
File index: 006183
Input file: /data/retarget/locomotion/raw/AMASS_SMPLXG/CMU/137/137_06_stageii.npz
Output file: ../robot/ik_based/pkl/006183.pkl
Status: SKIPPED (ALREADY EXISTS) - NO PROCESSING PERFORMED
==================================================

=== SKIPPED (ALREADY EXISTS) - 2025-10-14 22:42:16 ===
File index: 006184
Input file: /data/retarget/locomotion/raw/AMASS_SMPLXG/CMU/137/137_07_stageii.npz
Output file: ../robot/ik_based/pkl/006184.pkl
Status: SKIPPED (ALREADY EXISTS) - NO PROCESSING PERFORMED
==================================================

=== SKIPPED (ALREADY EXISTS) - 2025-10-14 22:42:16 ===
File index: 006185
Input file: /data/retarget/locomotion/raw/AMASS_SMPLXG/CMU/137/137_08_stageii.npz
Output file: ../robot/ik_based/pkl/006185.pkl
Status: SKIPPED (ALREADY EXISTS) - NO PROCESSING PERFORMED
==================================================

=== SKIPPED (ALREADY EXISTS) - 2025-10-14 22:42:16 ===
File index: 006186
Input file: /data/retarget/locomotion/raw/AMASS_SMPLXG/CMU/137/137_09_stageii.npz
Output file: ../robot/ik_based/pkl/006186.pkl
Status: SKIPPED (ALREADY EXISTS) - NO PROCESSING PERFORMED
==================================================

=== SKIPPED (ALREADY EXISTS) - 2025-10-14 22:42:16 ===
File index: 006187
Input file: /data/retarget/locomotion/raw/AMASS_SMPLXG/CMU/137/137_10_stageii.npz
Output file: ../robot/ik_based/pkl/006187.pkl
Status: SKIPPED (ALREADY EXISTS) - NO PROCESSING PERFORMED
==================================================

=== SKIPPED (ALREADY EXISTS) - 2025-10-14 22:42:16 ===
File index: 006188
Input file: /data/retarget/locomotion/raw/AMASS_SMPLXG/CMU/137/137_11_stageii.npz
Output file: ../robot/ik_based/pkl/006188.pkl
Status: SKIPPED (ALREADY EXISTS) - NO PROCESSING PERFORMED
==================================================

=== SKIPPED (ALREADY EXISTS) - 2025-10-14 22:42:16 ===
File index: 006189
Input file: /data/retarget/locomotion/raw/AMASS_SMPLXG/CMU/137/137_12_stageii.npz
Output file: ../robot/ik_based/pkl/006189.pkl
Status: SKIPPED (ALREADY EXISTS) - NO PROCESSING PERFORMED
==================================================

=== SKIPPED (ALREADY EXISTS) - 2025-10-14 22:42:16 ===
File index: 006190
Input file: /data/retarget/locomotion/raw/AMASS_SMPLXG/CMU/137/137_13_stageii.npz
Output file: ../robot/ik_based/pkl/006190.pkl
Status: SKIPPED (ALREADY EXISTS) - NO PROCESSING PERFORMED
==================================================

=== SKIPPED (ALREADY EXISTS) - 2025-10-14 22:42:16 ===
File index: 006191
Input file: /data/retarget/locomotion/raw/AMASS_SMPLXG/CMU/137/137_14_stageii.npz
Output file: ../robot/ik_based/pkl/006191.pkl
Status: SKIPPED (ALREADY EXISTS) - NO PROCESSING PERFORMED
==================================================

=== SKIPPED (ALREADY EXISTS) - 2025-10-14 22:42:16 ===
File index: 006192
Input file: /data/retarget/locomotion/raw/AMASS_SMPLXG/CMU/137/137_15_stageii.npz
Output file: ../robot/ik_based/pkl/006192.pkl
Status: SKIPPED (ALREADY EXISTS) - NO PROCESSING PERFORMED
==================================================

=== SKIPPED (ALREADY EXISTS) - 2025-10-14 22:42:16 ===
File index: 006193
Input file: /data/retarget/locomotion/raw/AMASS_SMPLXG/CMU/137/137_16_stageii.npz
Output file: ../robot/ik_based/pkl/006193.pkl
Status: SKIPPED (ALREADY EXISTS) - NO PROCESSING PERFORMED
==================================================

=== SKIPPED (ALREADY EXISTS) - 2025-10-14 22:42:16 ===
File index: 006194
Input file: /data/retarget/locomotion/raw/AMASS_SMPLXG/CMU/137/137_17_stageii.npz
Output file: ../robot/ik_based/pkl/006194.pkl
Status: SKIPPED (ALREADY EXISTS) - NO PROCESSING PERFORMED
==================================================

=== SKIPPED (ALREADY EXISTS) - 2025-10-14 22:42:16 ===
File index: 006195
Input file: /data/retarget/locomotion/raw/AMASS_SMPLXG/CMU/137/137_18_stageii.npz
Output file: ../robot/ik_based/pkl/006195.pkl
Status: SKIPPED (ALREADY EXISTS) - NO PROCESSING PERFORMED
==================================================

=== SKIPPED (ALREADY EXISTS) - 2025-10-14 22:42:16 ===
File index: 006196
Input file: /data/retarget/locomotion/raw/AMASS_SMPLXG/CMU/137/137_19_stageii.npz
Output file: ../robot/ik_based/pkl/006196.pkl
Status: SKIPPED (ALREADY EXISTS) - NO PROCESSING PERFORMED
==================================================

=== SKIPPED (ALREADY EXISTS) - 2025-10-14 22:42:16 ===
File index: 006197
Input file: /data/retarget/locomotion/raw/AMASS_SMPLXG/CMU/137/137_20_stageii.npz
Output file: ../robot/ik_based/pkl/006197.pkl
Status: SKIPPED (ALREADY EXISTS) - NO PROCESSING PERFORMED
==================================================

=== SKIPPED (ALREADY EXISTS) - 2025-10-14 22:42:16 ===
File index: 006198
Input file: /data/retarget/locomotion/raw/AMASS_SMPLXG/CMU/137/137_21_stageii.npz
Output file: ../robot/ik_based/pkl/006198.pkl
Status: SKIPPED (ALREADY EXISTS) - NO PROCESSING PERFORMED
==================================================

=== SKIPPED (ALREADY EXISTS) - 2025-10-14 22:42:16 ===
File index: 006199
Input file: /data/retarget/locomotion/raw/AMASS_SMPLXG/CMU/137/137_22_stageii.npz
Output file: ../robot/ik_based/pkl/006199.pkl
Status: SKIPPED (ALREADY EXISTS) - NO PROCESSING PERFORMED
==================================================

=== SKIPPED (ALREADY EXISTS) - 2025-10-14 22:42:16 ===
File index: 006200
Input file: /data/retarget/locomotion/raw/AMASS_SMPLXG/CMU/137/137_23_stageii.npz
Output file: ../robot/ik_based/pkl/006200.pkl
Status: SKIPPED (ALREADY EXISTS) - NO PROCESSING PERFORMED
==================================================

=== SKIPPED (ALREADY EXISTS) - 2025-10-14 22:42:16 ===
File index: 006201
Input file: /data/retarget/locomotion/raw/AMASS_SMPLXG/CMU/137/137_24_stageii.npz
Output file: ../robot/ik_based/pkl/006201.pkl
Status: SKIPPED (ALREADY EXISTS) - NO PROCESSING PERFORMED
==================================================

=== SKIPPED (ALREADY EXISTS) - 2025-10-14 22:42:16 ===
File index: 006202
Input file: /data/retarget/locomotion/raw/AMASS_SMPLXG/CMU/137/137_25_stageii.npz
Output file: ../robot/ik_based/pkl/006202.pkl
Status: SKIPPED (ALREADY EXISTS) - NO PROCESSING PERFORMED
==================================================

=== SKIPPED (ALREADY EXISTS) - 2025-10-14 22:42:16 ===
File index: 006203
Input file: /data/retarget/locomotion/raw/AMASS_SMPLXG/CMU/137/137_26_stageii.npz
Output file: ../robot/ik_based/pkl/006203.pkl
Status: SKIPPED (ALREADY EXISTS) - NO PROCESSING PERFORMED
==================================================

=== SKIPPED (ALREADY EXISTS) - 2025-10-14 22:42:16 ===
File index: 006204
Input file: /data/retarget/locomotion/raw/AMASS_SMPLXG/CMU/137/137_27_stageii.npz
Output file: ../robot/ik_based/pkl/006204.pkl
Status: SKIPPED (ALREADY EXISTS) - NO PROCESSING PERFORMED
==================================================

=== SKIPPED (ALREADY EXISTS) - 2025-10-14 22:42:16 ===
File index: 006205
Input file: /data/retarget/locomotion/raw/AMASS_SMPLXG/CMU/137/137_28_stageii.npz
Output file: ../robot/ik_based/pkl/006205.pkl
Status: SKIPPED (ALREADY EXISTS) - NO PROCESSING PERFORMED
==================================================

=== SKIPPED (ALREADY EXISTS) - 2025-10-14 22:42:16 ===
File index: 006206
Input file: /data/retarget/locomotion/raw/AMASS_SMPLXG/CMU/137/137_29_stageii.npz
Output file: ../robot/ik_based/pkl/006206.pkl
Status: SKIPPED (ALREADY EXISTS) - NO PROCESSING PERFORMED
==================================================

=== SKIPPED (ALREADY EXISTS) - 2025-10-14 22:42:16 ===
File index: 006207
Input file: /data/retarget/locomotion/raw/AMASS_SMPLXG/CMU/137/137_31_stageii.npz
Output file: ../robot/ik_based/pkl/006207.pkl
Status: SKIPPED (ALREADY EXISTS) - NO PROCESSING PERFORMED
==================================================

=== SKIPPED (ALREADY EXISTS) - 2025-10-14 22:42:16 ===
File index: 006208
Input file: /data/retarget/locomotion/raw/AMASS_SMPLXG/CMU/137/137_32_stageii.npz
Output file: ../robot/ik_based/pkl/006208.pkl
Status: SKIPPED (ALREADY EXISTS) - NO PROCESSING PERFORMED
==================================================

=== SKIPPED (ALREADY EXISTS) - 2025-10-14 22:42:16 ===
File index: 006209
Input file: /data/retarget/locomotion/raw/AMASS_SMPLXG/CMU/137/137_33_stageii.npz
Output file: ../robot/ik_based/pkl/006209.pkl
Status: SKIPPED (ALREADY EXISTS) - NO PROCESSING PERFORMED
==================================================

=== SKIPPED (ALREADY EXISTS) - 2025-10-14 22:42:16 ===
File index: 006210
Input file: /data/retarget/locomotion/raw/AMASS_SMPLXG/CMU/137/137_34_stageii.npz
Output file: ../robot/ik_based/pkl/006210.pkl
Status: SKIPPED (ALREADY EXISTS) - NO PROCESSING PERFORMED
==================================================

=== SKIPPED (ALREADY EXISTS) - 2025-10-14 22:42:16 ===
File index: 006211
Input file: /data/retarget/locomotion/raw/AMASS_SMPLXG/CMU/137/137_35_stageii.npz
Output file: ../robot/ik_based/pkl/006211.pkl
Status: SKIPPED (ALREADY EXISTS) - NO PROCESSING PERFORMED
==================================================

=== SKIPPED (ALREADY EXISTS) - 2025-10-14 22:42:16 ===
File index: 006212
Input file: /data/retarget/locomotion/raw/AMASS_SMPLXG/CMU/137/137_36_stageii.npz
Output file: ../robot/ik_based/pkl/006212.pkl
Status: SKIPPED (ALREADY EXISTS) - NO PROCESSING PERFORMED
==================================================

=== SKIPPED (ALREADY EXISTS) - 2025-10-14 22:42:16 ===
File index: 006213
Input file: /data/retarget/locomotion/raw/AMASS_SMPLXG/CMU/137/137_37_stageii.npz
Output file: ../robot/ik_based/pkl/006213.pkl
Status: SKIPPED (ALREADY EXISTS) - NO PROCESSING PERFORMED
==================================================

=== SKIPPED (ALREADY EXISTS) - 2025-10-14 22:42:16 ===
File index: 006214
Input file: /data/retarget/locomotion/raw/AMASS_SMPLXG/CMU/137/137_38_stageii.npz
Output file: ../robot/ik_based/pkl/006214.pkl
Status: SKIPPED (ALREADY EXISTS) - NO PROCESSING PERFORMED
==================================================

=== SKIPPED (ALREADY EXISTS) - 2025-10-14 22:42:16 ===
File index: 006215
Input file: /data/retarget/locomotion/raw/AMASS_SMPLXG/CMU/137/137_39_stageii.npz
Output file: ../robot/ik_based/pkl/006215.pkl
Status: SKIPPED (ALREADY EXISTS) - NO PROCESSING PERFORMED
==================================================

=== SKIPPED (ALREADY EXISTS) - 2025-10-14 22:42:16 ===
File index: 006216
Input file: /data/retarget/locomotion/raw/AMASS_SMPLXG/CMU/137/137_40_stageii.npz
Output file: ../robot/ik_based/pkl/006216.pkl
Status: SKIPPED (ALREADY EXISTS) - NO PROCESSING PERFORMED
==================================================

=== SKIPPED (ALREADY EXISTS) - 2025-10-14 22:42:16 ===
File index: 006217
Input file: /data/retarget/locomotion/raw/AMASS_SMPLXG/CMU/137/137_41_stageii.npz
Output file: ../robot/ik_based/pkl/006217.pkl
Status: SKIPPED (ALREADY EXISTS) - NO PROCESSING PERFORMED
==================================================

=== SKIPPED (ALREADY EXISTS) - 2025-10-14 22:42:16 ===
File index: 006218
Input file: /data/retarget/locomotion/raw/AMASS_SMPLXG/CMU/137/137_42_stageii.npz
Output file: ../robot/ik_based/pkl/006218.pkl
Status: SKIPPED (ALREADY EXISTS) - NO PROCESSING PERFORMED
==================================================

=== ERROR LOG - 2025-10-14 22:42:17 ===
Input file: /data/retarget/locomotion/raw/AMASS_SMPLXG/CMU/137/male_stagei.npz
Output file: ../robot/ik_based/pkl/006219.pkl
Robot type: unitree_g1
Processing time: 1.03 seconds
Error message: 'pose_body is not a file in the archive'
Error type: KeyError
==================================================

=== FILE FAILURE - 2025-10-14 22:42:17 ===
File index: 006219
File number: 220/11757
Input file: /data/retarget/locomotion/raw/AMASS_SMPLXG/CMU/137/male_stagei.npz
Output file: ../robot/ik_based/pkl/006219.pkl
Processing time: 1.03 seconds
Total file time: 1.16 seconds
Status: FAILED
==================================================

=== SKIPPED (ALREADY EXISTS) - 2025-10-14 22:42:17 ===
File index: 006220
Input file: /data/retarget/locomotion/raw/AMASS_SMPLXG/CMU/138/138_01_stageii.npz
Output file: ../robot/ik_based/pkl/006220.pkl
Status: SKIPPED (ALREADY EXISTS) - NO PROCESSING PERFORMED
==================================================

=== SKIPPED (ALREADY EXISTS) - 2025-10-14 22:42:17 ===
File index: 006221
Input file: /data/retarget/locomotion/raw/AMASS_SMPLXG/CMU/138/138_03_stageii.npz
Output file: ../robot/ik_based/pkl/006221.pkl
Status: SKIPPED (ALREADY EXISTS) - NO PROCESSING PERFORMED
==================================================

=== SKIPPED (ALREADY EXISTS) - 2025-10-14 22:42:17 ===
File index: 006222
Input file: /data/retarget/locomotion/raw/AMASS_SMPLXG/CMU/138/138_04_stageii.npz
Output file: ../robot/ik_based/pkl/006222.pkl
Status: SKIPPED (ALREADY EXISTS) - NO PROCESSING PERFORMED
==================================================

=== SKIPPED (ALREADY EXISTS) - 2025-10-14 22:42:17 ===
File index: 006223
Input file: /data/retarget/locomotion/raw/AMASS_SMPLXG/CMU/138/138_06_stageii.npz
Output file: ../robot/ik_based/pkl/006223.pkl
Status: SKIPPED (ALREADY EXISTS) - NO PROCESSING PERFORMED
==================================================

=== SKIPPED (ALREADY EXISTS) - 2025-10-14 22:42:17 ===
File index: 006224
Input file: /data/retarget/locomotion/raw/AMASS_SMPLXG/CMU/138/138_09_stageii.npz
Output file: ../robot/ik_based/pkl/006224.pkl
Status: SKIPPED (ALREADY EXISTS) - NO PROCESSING PERFORMED
==================================================

=== SKIPPED (ALREADY EXISTS) - 2025-10-14 22:42:17 ===
File index: 006225
Input file: /data/retarget/locomotion/raw/AMASS_SMPLXG/CMU/138/138_10_stageii.npz
Output file: ../robot/ik_based/pkl/006225.pkl
Status: SKIPPED (ALREADY EXISTS) - NO PROCESSING PERFORMED
==================================================

=== SKIPPED (ALREADY EXISTS) - 2025-10-14 22:42:17 ===
File index: 006226
Input file: /data/retarget/locomotion/raw/AMASS_SMPLXG/CMU/138/138_11_stageii.npz
Output file: ../robot/ik_based/pkl/006226.pkl
Status: SKIPPED (ALREADY EXISTS) - NO PROCESSING PERFORMED
==================================================

=== SKIPPED (ALREADY EXISTS) - 2025-10-14 22:42:17 ===
File index: 006227
Input file: /data/retarget/locomotion/raw/AMASS_SMPLXG/CMU/138/138_12_stageii.npz
Output file: ../robot/ik_based/pkl/006227.pkl
Status: SKIPPED (ALREADY EXISTS) - NO PROCESSING PERFORMED
==================================================

=== SKIPPED (ALREADY EXISTS) - 2025-10-14 22:42:17 ===
File index: 006228
Input file: /data/retarget/locomotion/raw/AMASS_SMPLXG/CMU/138/138_17_stageii.npz
Output file: ../robot/ik_based/pkl/006228.pkl
Status: SKIPPED (ALREADY EXISTS) - NO PROCESSING PERFORMED
==================================================

=== SKIPPED (ALREADY EXISTS) - 2025-10-14 22:42:17 ===
File index: 006229
Input file: /data/retarget/locomotion/raw/AMASS_SMPLXG/CMU/138/138_18_stageii.npz
Output file: ../robot/ik_based/pkl/006229.pkl
Status: SKIPPED (ALREADY EXISTS) - NO PROCESSING PERFORMED
==================================================

=== SKIPPED (ALREADY EXISTS) - 2025-10-14 22:42:17 ===
File index: 006230
Input file: /data/retarget/locomotion/raw/AMASS_SMPLXG/CMU/138/138_19_stageii.npz
Output file: ../robot/ik_based/pkl/006230.pkl
Status: SKIPPED (ALREADY EXISTS) - NO PROCESSING PERFORMED
==================================================

=== SKIPPED (ALREADY EXISTS) - 2025-10-14 22:42:17 ===
File index: 006231
Input file: /data/retarget/locomotion/raw/AMASS_SMPLXG/CMU/138/138_20_stageii.npz
Output file: ../robot/ik_based/pkl/006231.pkl
Status: SKIPPED (ALREADY EXISTS) - NO PROCESSING PERFORMED
==================================================

=== SKIPPED (ALREADY EXISTS) - 2025-10-14 22:42:17 ===
File index: 006232
Input file: /data/retarget/locomotion/raw/AMASS_SMPLXG/CMU/138/138_21_stageii.npz
Output file: ../robot/ik_based/pkl/006232.pkl
Status: SKIPPED (ALREADY EXISTS) - NO PROCESSING PERFORMED
==================================================

=== SKIPPED (ALREADY EXISTS) - 2025-10-14 22:42:17 ===
File index: 006233
Input file: /data/retarget/locomotion/raw/AMASS_SMPLXG/CMU/138/138_23_stageii.npz
Output file: ../robot/ik_based/pkl/006233.pkl
Status: SKIPPED (ALREADY EXISTS) - NO PROCESSING PERFORMED
==================================================

=== SKIPPED (ALREADY EXISTS) - 2025-10-14 22:42:17 ===
File index: 006234
Input file: /data/retarget/locomotion/raw/AMASS_SMPLXG/CMU/138/138_24_stageii.npz
Output file: ../robot/ik_based/pkl/006234.pkl
Status: SKIPPED (ALREADY EXISTS) - NO PROCESSING PERFORMED
==================================================

=== SKIPPED (ALREADY EXISTS) - 2025-10-14 22:42:17 ===
File index: 006235
Input file: /data/retarget/locomotion/raw/AMASS_SMPLXG/CMU/138/138_25_stageii.npz
Output file: ../robot/ik_based/pkl/006235.pkl
Status: SKIPPED (ALREADY EXISTS) - NO PROCESSING PERFORMED
==================================================

=== SKIPPED (ALREADY EXISTS) - 2025-10-14 22:42:17 ===
File index: 006236
Input file: /data/retarget/locomotion/raw/AMASS_SMPLXG/CMU/138/138_48_stageii.npz
Output file: ../robot/ik_based/pkl/006236.pkl
Status: SKIPPED (ALREADY EXISTS) - NO PROCESSING PERFORMED
==================================================

=== ERROR LOG - 2025-10-14 22:42:18 ===
Input file: /data/retarget/locomotion/raw/AMASS_SMPLXG/CMU/138/female_stagei.npz
Output file: ../robot/ik_based/pkl/006237.pkl
Robot type: unitree_g1
Processing time: 1.24 seconds
Error message: 'pose_body is not a file in the archive'
Error type: KeyError
==================================================

=== FILE FAILURE - 2025-10-14 22:42:18 ===
File index: 006237
File number: 238/11757
Input file: /data/retarget/locomotion/raw/AMASS_SMPLXG/CMU/138/female_stagei.npz
Output file: ../robot/ik_based/pkl/006237.pkl
Processing time: 1.24 seconds
Total file time: 1.35 seconds
Status: FAILED
==================================================

=== SKIPPED (ALREADY EXISTS) - 2025-10-14 22:42:18 ===
File index: 006238
Input file: /data/retarget/locomotion/raw/AMASS_SMPLXG/CMU/139/139_01_stageii.npz
Output file: ../robot/ik_based/pkl/006238.pkl
Status: SKIPPED (ALREADY EXISTS) - NO PROCESSING PERFORMED
==================================================

=== SKIPPED (ALREADY EXISTS) - 2025-10-14 22:42:18 ===
File index: 006239
Input file: /data/retarget/locomotion/raw/AMASS_SMPLXG/CMU/139/139_02_stageii.npz
Output file: ../robot/ik_based/pkl/006239.pkl
Status: SKIPPED (ALREADY EXISTS) - NO PROCESSING PERFORMED
==================================================

=== SKIPPED (ALREADY EXISTS) - 2025-10-14 22:42:18 ===
File index: 006240
Input file: /data/retarget/locomotion/raw/AMASS_SMPLXG/CMU/139/139_03_stageii.npz
Output file: ../robot/ik_based/pkl/006240.pkl
Status: SKIPPED (ALREADY EXISTS) - NO PROCESSING PERFORMED
==================================================

=== SKIPPED (ALREADY EXISTS) - 2025-10-14 22:42:18 ===
File index: 006241
Input file: /data/retarget/locomotion/raw/AMASS_SMPLXG/CMU/139/139_04_stageii.npz
Output file: ../robot/ik_based/pkl/006241.pkl
Status: SKIPPED (ALREADY EXISTS) - NO PROCESSING PERFORMED
==================================================

=== SKIPPED (ALREADY EXISTS) - 2025-10-14 22:42:18 ===
File index: 006242
Input file: /data/retarget/locomotion/raw/AMASS_SMPLXG/CMU/139/139_05_stageii.npz
Output file: ../robot/ik_based/pkl/006242.pkl
Status: SKIPPED (ALREADY EXISTS) - NO PROCESSING PERFORMED
==================================================

=== SKIPPED (ALREADY EXISTS) - 2025-10-14 22:42:18 ===
File index: 006243
Input file: /data/retarget/locomotion/raw/AMASS_SMPLXG/CMU/139/139_06_stageii.npz
Output file: ../robot/ik_based/pkl/006243.pkl
Status: SKIPPED (ALREADY EXISTS) - NO PROCESSING PERFORMED
==================================================

=== SKIPPED (ALREADY EXISTS) - 2025-10-14 22:42:18 ===
File index: 006244
Input file: /data/retarget/locomotion/raw/AMASS_SMPLXG/CMU/139/139_07_stageii.npz
Output file: ../robot/ik_based/pkl/006244.pkl
Status: SKIPPED (ALREADY EXISTS) - NO PROCESSING PERFORMED
==================================================

=== SKIPPED (ALREADY EXISTS) - 2025-10-14 22:42:18 ===
[...]
  Init Visualization: 0.00s
  Process Frames: 81.71s (avg: 0.042s/frame)
  Convert Arrays: 0.01s
  Forward Kinematics: 0.12s
Error message: CUDA out of memory. Tried to allocate 2.00 MiB. GPU 0 has a total capacity of 23.58 GiB of which 74.31 MiB is free. Process 106491 has 332.00 MiB memory in use. Process 381781 has 330.00 MiB memory in use. Process 651230 has 358.00 MiB memory in use. Process 651323 has 358.00 MiB memory in use. Process 651495 has 358.00 MiB memory in use. Process 652122 has 358.00 MiB memory in use. Process 758984 has 330.00 MiB memory in use. Process 759061 has 330.00 MiB memory in use. Process 759140 has 330.00 MiB memory in use. Process 759277 has 330.00 MiB memory in use. Process 759587 has 332.00 MiB memory in use. Process 759754 has 330.00 MiB memory in use. Process 760292 has 330.00 MiB memory in use. Process 760574 has 332.00 MiB memory in use. Process 760908 has 330.00 MiB memory in use. Process 761223 has 330.00 MiB memory in use. Process 761507 has 330.00 MiB memory in use. Process 761784 has 330.00 MiB memory in use. Process 762065 has 332.00 MiB memory in use. Process 762398 has 330.00 MiB memory in use. Process 762712 has 332.00 MiB memory in use. Process 763000 has 330.00 MiB memory in use. Process 763207 has 332.00 MiB memory in use. Process 763626 has 332.00 MiB memory in use. Process 763813 has 332.00 MiB memory in use. Process 764099 has 62.00 MiB memory in use. Process 764277 has 330.00 MiB memory in use. Process 764470 has 330.00 MiB memory in use. Process 764800 has 332.00 MiB memory in use. Process 765270 has 332.00 MiB memory in use. Process 765495 has 332.00 MiB memory in use. Process 765996 has 330.00 MiB memory in use. Process 766580 has 332.00 MiB memory in use. Process 766668 has 330.00 MiB memory in use. Process 767492 has 330.00 MiB memory in use. Process 767044 has 330.00 MiB memory in use. Process 767720 has 332.00 MiB memory in use. Process 767797 has 332.00 MiB memory in use. Process 768541 has 330.00 MiB memory in use. Process 769125 has 332.00 MiB memory in use. Process 768850 has 332.00 MiB memory in use. Process 769686 has 330.00 MiB memory in use. Process 769459 has 330.00 MiB memory in use. Process 769827 has 330.00 MiB memory in use. Process 770524 has 332.00 MiB memory in use. Process 770888 has 332.00 MiB memory in use. Process 770316 has 330.00 MiB memory in use. Process 771275 has 330.00 MiB memory in use. Process 771105 has 332.00 MiB memory in use. Process 771771 has 330.00 MiB memory in use. Process 771619 has 330.00 MiB memory in use. Process 772148 has 332.00 MiB memory in use. Process 772899 has 330.00 MiB memory in use. Process 772664 has 332.00 MiB memory in use. Process 773176 has 330.00 MiB memory in use. Process 773279 has 332.00 MiB memory in use. Process 773623 has 330.00 MiB memory in use. Process 774056 has 330.00 MiB memory in use. Process 774461 has 330.00 MiB memory in use. Process 774726 has 330.00 MiB memory in use. Process 774904 has 330.00 MiB memory in use. Process 775026 has 330.00 MiB memory in use. Process 775459 has 330.00 MiB memory in use. Process 775737 has 332.00 MiB memory in use. Process 775847 has 330.00 MiB memory in use. Process 776237 has 332.00 MiB memory in use. Process 776606 has 330.00 MiB memory in use. Process 776978 has 330.00 MiB memory in use. Process 776886 has 332.00 MiB memory in use. Process 777350 has 332.00 MiB memory in use. Process 777531 has 330.00 MiB memory in use. Including non-PyTorch memory, this process has 330.00 MiB memory in use. Of the allocated memory 13.48 MiB is allocated by PyTorch, and 10.52 MiB is reserved by PyTorch but unallocated. If reserved but unallocated memory is large try setting PYTORCH_CUDA_ALLOC_CONF=expandable_segments:True to avoid fragmentation.  See documentation for Memory Management  (https://pytorch.org/docs/stable/notes/cuda.html#environment-variables)
Error type: OutOfMemoryError
==================================================

=== FILE FAILURE - 2025-10-15 05:59:08 ===
File index: 010344
File number: 4345/11757
Input file: /data/retarget/locomotion/raw/AMASS_SMPLXG/HDM05/bk/HDM_bk_01-04_02_120_stageii.npz
Output file: ../robot/ik_based/pkl/010344.pkl
Processing time: 138.57 seconds
Total file time: 140.09 seconds
Status: FAILED
==================================================

=== SUCCESS LOG - 2025-10-15 06:01:17 ===
Input file: /data/retarget/locomotion/raw/AMASS_SMPLXG/HDM05/bk/HDM_bk_01-04_03_120_stageii.npz
Output file: ../robot/ik_based/pkl/010345.pkl
Robot type: unitree_g1
Processing time: 128.47 seconds

STEP-BY-STEP TIMING:
  Step 1 - Load SMPLX:        23.07s
  Step 2 - Align FPS:         24.67s
  Step 3 - Init Retarget:     0.91s
  Step 4 - Init Visualization: 0.00s
  Step 5 - Process Frames:    79.53s (avg: 0.047s/frame)
  Step 6 - Convert Arrays:    0.01s
  Step 7 - Forward Kinematics: 0.21s
  Step 8 - Save Data:         0.01s
Status: SUCCESS
==================================================

=== FILE SUCCESS - 2025-10-15 06:01:18 ===
File index: 010345
File number: 4346/11757
Input file: /data/retarget/locomotion/raw/AMASS_SMPLXG/HDM05/bk/HDM_bk_01-04_03_120_stageii.npz
Output file: ../robot/ik_based/pkl/010345.pkl
Processing time: 128.47 seconds
Total file time: 129.80 seconds
Status: SUCCESS
==================================================

=== SKIPPED (ALREADY EXISTS) - 2025-10-15 06:01:18 ===
File index: 010346
Input file: /data/retarget/locomotion/raw/AMASS_SMPLXG/HDM05/bk/HDM_bk_02-01_01_120_stageii.npz
Output file: ../robot/ik_based/pkl/010346.pkl
Status: SKIPPED (ALREADY EXISTS) - NO PROCESSING PERFORMED
==================================================

=== SUCCESS LOG - 2025-10-15 06:03:13 ===
Input file: /data/retarget/locomotion/raw/AMASS_SMPLXG/HDM05/bk/HDM_bk_02-01_02_120_stageii.npz
Output file: ../robot/ik_based/pkl/010347.pkl
Robot type: unitree_g1
Processing time: 115.34 seconds

STEP-BY-STEP TIMING:
  Step 1 - Load SMPLX:        16.01s
  Step 2 - Align FPS:         18.34s
  Step 3 - Init Retarget:     0.63s
  Step 4 - Init Visualization: 0.00s
  Step 5 - Process Frames:    80.28s (avg: 0.087s/frame)
  Step 6 - Convert Arrays:    0.00s
  Step 7 - Forward Kinematics: 0.04s
  Step 8 - Save Data:         0.00s
Status: SUCCESS
==================================================

=== FILE SUCCESS - 2025-10-15 06:03:15 ===
File index: 010347
File number: 4348/11757
Input file: /data/retarget/locomotion/raw/AMASS_SMPLXG/HDM05/bk/HDM_bk_02-01_02_120_stageii.npz
Output file: ../robot/ik_based/pkl/010347.pkl
Processing time: 115.34 seconds
Total file time: 116.45 seconds
Status: SUCCESS
==================================================

=== SUCCESS LOG - 2025-10-15 06:04:41 ===
Input file: /data/retarget/locomotion/raw/AMASS_SMPLXG/HDM05/bk/HDM_bk_02-01_03_120_stageii.npz
Output file: ../robot/ik_based/pkl/010348.pkl
Robot type: unitree_g1
Processing time: 86.07 seconds

STEP-BY-STEP TIMING:
  Step 1 - Load SMPLX:        11.75s
  Step 2 - Align FPS:         10.88s
  Step 3 - Init Retarget:     0.59s
  Step 4 - Init Visualization: 0.00s
  Step 5 - Process Frames:    62.73s (avg: 0.076s/frame)
  Step 6 - Convert Arrays:    0.00s
  Step 7 - Forward Kinematics: 0.07s
  Step 8 - Save Data:         0.01s
Status: SUCCESS
==================================================

=== FILE SUCCESS - 2025-10-15 06:04:42 ===
File index: 010348
File number: 4349/11757
Input file: /data/retarget/locomotion/raw/AMASS_SMPLXG/HDM05/bk/HDM_bk_02-01_03_120_stageii.npz
Output file: ../robot/ik_based/pkl/010348.pkl
Processing time: 86.07 seconds
Total file time: 87.49 seconds
Status: SUCCESS
==================================================

=== SUCCESS LOG - 2025-10-15 06:06:55 ===
Input file: /data/retarget/locomotion/raw/AMASS_SMPLXG/HDM05/bk/HDM_bk_02-02_01_120_stageii.npz
Output file: ../robot/ik_based/pkl/010349.pkl
Robot type: unitree_g1
Processing time: 133.17 seconds

STEP-BY-STEP TIMING:
  Step 1 - Load SMPLX:        33.03s
  Step 2 - Align FPS:         22.63s
  Step 3 - Init Retarget:     0.32s
  Step 4 - Init Visualization: 0.00s
  Step 5 - Process Frames:    76.61s (avg: 0.046s/frame)
  Step 6 - Convert Arrays:    0.02s
  Step 7 - Forward Kinematics: 0.40s
  Step 8 - Save Data:         0.01s
Status: SUCCESS
==================================================

=== FILE SUCCESS - 2025-10-15 06:06:57 ===
File index: 010349
File number: 4350/11757
Input file: /data/retarget/locomotion/raw/AMASS_SMPLXG/HDM05/bk/HDM_bk_02-02_01_120_stageii.npz
Output file: ../robot/ik_based/pkl/010349.pkl
Processing time: 133.17 seconds
Total file time: 134.55 seconds
Status: SUCCESS
==================================================

=== SUCCESS LOG - 2025-10-15 06:09:15 ===
Input file: /data/retarget/locomotion/raw/AMASS_SMPLXG/HDM05/bk/HDM_bk_02-02_02_120_stageii.npz
Output file: ../robot/ik_based/pkl/010350.pkl
Robot type: unitree_g1
Processing time: 138.54 seconds

STEP-BY-STEP TIMING:
  Step 1 - Load SMPLX:        43.99s
  Step 2 - Align FPS:         20.64s
  Step 3 - Init Retarget:     0.49s
  Step 4 - Init Visualization: 0.00s
  Step 5 - Process Frames:    72.96s (avg: 0.041s/frame)
  Step 6 - Convert Arrays:    0.15s
  Step 7 - Forward Kinematics: 0.14s
  Step 8 - Save Data:         0.04s
Status: SUCCESS
==================================================

=== FILE SUCCESS - 2025-10-15 06:09:17 ===
File index: 010350
File number: 4351/11757
Input file: /data/retarget/locomotion/raw/AMASS_SMPLXG/HDM05/bk/HDM_bk_02-02_02_120_stageii.npz
Output file: ../robot/ik_based/pkl/010350.pkl
Processing time: 138.54 seconds
Total file time: 140.12 seconds
Status: SUCCESS
==================================================

=== SUCCESS LOG - 2025-10-15 06:11:48 ===
Input file: /data/retarget/locomotion/raw/AMASS_SMPLXG/HDM05/bk/HDM_bk_02-02_03_120_stageii.npz
Output file: ../robot/ik_based/pkl/010351.pkl
Robot type: unitree_g1
Processing time: 150.98 seconds

STEP-BY-STEP TIMING:
  Step 1 - Load SMPLX:        47.98s
  Step 2 - Align FPS:         23.28s
  Step 3 - Init Retarget:     0.55s
  Step 4 - Init Visualization: 0.00s
  Step 5 - Process Frames:    78.55s (avg: 0.049s/frame)
  Step 6 - Convert Arrays:    0.01s
  Step 7 - Forward Kinematics: 0.25s
  Step 8 - Save Data:         0.02s
Status: SUCCESS
==================================================

=== FILE SUCCESS - 2025-10-15 06:11:49 ===
File index: 010351
File number: 4352/11757
Input file: /data/retarget/locomotion/raw/AMASS_SMPLXG/HDM05/bk/HDM_bk_02-02_03_120_stageii.npz
Output file: ../robot/ik_based/pkl/010351.pkl
Processing time: 150.98 seconds
Total file time: 152.04 seconds
Status: SUCCESS
==================================================

=== SKIPPED (ALREADY EXISTS) - 2025-10-15 06:11:49 ===
File index: 010352
Input file: /data/retarget/locomotion/raw/AMASS_SMPLXG/HDM05/bk/HDM_bk_02-03_01_120_stageii.npz
Output file: ../robot/ik_based/pkl/010352.pkl
Status: SKIPPED (ALREADY EXISTS) - NO PROCESSING PERFORMED
==================================================

=== SUCCESS LOG - 2025-10-15 06:13:00 ===
Input file: /data/retarget/locomotion/raw/AMASS_SMPLXG/HDM05/bk/HDM_bk_02-03_02_120_stageii.npz
Output file: ../robot/ik_based/pkl/010353.pkl
Robot type: unitree_g1
Processing time: 71.04 seconds

STEP-BY-STEP TIMING:
  Step 1 - Load SMPLX:        27.28s
  Step 2 - Align FPS:         6.22s
  Step 3 - Init Retarget:     0.39s
  Step 4 - Init Visualization: 0.00s
  Step 5 - Process Frames:    36.76s (avg: 0.079s/frame)
  Step 6 - Convert Arrays:    0.01s
  Step 7 - Forward Kinematics: 0.21s
  Step 8 - Save Data:         0.07s
Status: SUCCESS
==================================================

=== FILE SUCCESS - 2025-10-15 06:13:01 ===
File index: 010353
File number: 4354/11757
Input file: /data/retarget/locomotion/raw/AMASS_SMPLXG/HDM05/bk/HDM_bk_02-03_02_120_stageii.npz
Output file: ../robot/ik_based/pkl/010353.pkl
Processing time: 71.04 seconds
Total file time: 71.92 seconds
Status: SUCCESS
==================================================

=== SUCCESS LOG - 2025-10-15 06:14:45 ===
Input file: /data/retarget/locomotion/raw/AMASS_SMPLXG/HDM05/bk/HDM_bk_02-03_03_120_stageii.npz
Output file: ../robot/ik_based/pkl/010354.pkl
Robot type: unitree_g1
Processing time: 104.23 seconds

STEP-BY-STEP TIMING:
  Step 1 - Load SMPLX:        45.96s
  Step 2 - Align FPS:         4.85s
  Step 3 - Init Retarget:     0.52s
  Step 4 - Init Visualization: 0.00s
  Step 5 - Process Frames:    52.82s (avg: 0.099s/frame)
  Step 6 - Convert Arrays:    0.00s
  Step 7 - Forward Kinematics: 0.03s
  Step 8 - Save Data:         0.00s
Status: SUCCESS
==================================================

=== FILE SUCCESS - 2025-10-15 06:14:45 ===
File index: 010354
File number: 4355/11757
Input file: /data/retarget/locomotion/raw/AMASS_SMPLXG/HDM05/bk/HDM_bk_02-03_03_120_stageii.npz
Output file: ../robot/ik_based/pkl/010354.pkl
Processing time: 104.23 seconds
Total file time: 104.77 seconds
Status: SUCCESS
==================================================

=== SUCCESS LOG - 2025-10-15 06:15:48 ===
Input file: /data/retarget/locomotion/raw/AMASS_SMPLXG/HDM05/bk/HDM_bk_02-03_04_120_stageii.npz
Output file: ../robot/ik_based/pkl/010355.pkl
Robot type: unitree_g1
Processing time: 62.36 seconds

STEP-BY-STEP TIMING:
  Step 1 - Load SMPLX:        4.85s
  Step 2 - Align FPS:         5.88s
  Step 3 - Init Retarget:     0.31s
  Step 4 - Init Visualization: 0.00s
  Step 5 - Process Frames:    51.12s (avg: 0.107s/frame)
  Step 6 - Convert Arrays:    0.01s
  Step 7 - Forward Kinematics: 0.10s
  Step 8 - Save Data:         0.00s
Status: SUCCESS
==================================================

=== FILE SUCCESS - 2025-10-15 06:15:49 ===
File index: 010355
File number: 4356/11757
Input file: /data/retarget/locomotion/raw/AMASS_SMPLXG/HDM05/bk/HDM_bk_02-03_04_120_stageii.npz
Output file: ../robot/ik_based/pkl/010355.pkl
Processing time: 62.36 seconds
Total file time: 63.29 seconds
Status: SUCCESS
==================================================

=== SUCCESS LOG - 2025-10-15 06:18:13 ===
Input file: /data/retarget/locomotion/raw/AMASS_SMPLXG/HDM05/bk/HDM_bk_03-02_01_120_stageii.npz
Output file: ../robot/ik_based/pkl/010356.pkl
Robot type: unitree_g1
Processing time: 143.97 seconds

STEP-BY-STEP TIMING:
  Step 1 - Load SMPLX:        30.51s
  Step 2 - Align FPS:         23.89s
  Step 3 - Init Retarget:     1.13s
  Step 4 - Init Visualization: 0.00s
  Step 5 - Process Frames:    88.25s (avg: 0.071s/frame)
  Step 6 - Convert Arrays:    0.01s
  Step 7 - Forward Kinematics: 0.07s
  Step 8 - Save Data:         0.02s
Status: SUCCESS
==================================================

=== FILE SUCCESS - 2025-10-15 06:18:14 ===
File index: 010356
File number: 4357/11757
Input file: /data/retarget/locomotion/raw/AMASS_SMPLXG/HDM05/bk/HDM_bk_03-02_01_120_stageii.npz
Output file: ../robot/ik_based/pkl/010356.pkl
Processing time: 143.97 seconds
Total file time: 145.08 seconds
Status: SUCCESS
==================================================

=== SUCCESS LOG - 2025-10-15 06:20:15 ===
Input file: /data/retarget/locomotion/raw/AMASS_SMPLXG/HDM05/bk/HDM_bk_03-02_02_120_stageii.npz
Output file: ../robot/ik_based/pkl/010357.pkl
Robot type: unitree_g1
Processing time: 121.50 seconds

STEP-BY-STEP TIMING:
  Step 1 - Load SMPLX:        21.17s
  Step 2 - Align FPS:         18.55s
  Step 3 - Init Retarget:     0.84s
  Step 4 - Init Visualization: 0.00s
  Step 5 - Process Frames:    80.79s (avg: 0.078s/frame)
  Step 6 - Convert Arrays:    0.01s
  Step 7 - Forward Kinematics: 0.11s
  Step 8 - Save Data:         0.00s
Status: SUCCESS
==================================================

=== FILE SUCCESS - 2025-10-15 06:20:16 ===
File index: 010357
File number: 4358/11757
Input file: /data/retarget/locomotion/raw/AMASS_SMPLXG/HDM05/bk/HDM_bk_03-02_02_120_stageii.npz
Output file: ../robot/ik_based/pkl/010357.pkl
Processing time: 121.50 seconds
Total file time: 122.31 seconds
Status: SUCCESS
==================================================

=== SUCCESS LOG - 2025-10-15 06:22:23 ===
Input file: /data/retarget/locomotion/raw/AMASS_SMPLXG/HDM05/bk/HDM_bk_03-02_03_120_stageii.npz
Output file: ../robot/ik_based/pkl/010358.pkl
Robot type: unitree_g1
Processing time: 126.60 seconds

STEP-BY-STEP TIMING:
  Step 1 - Load SMPLX:        23.73s
  Step 2 - Align FPS:         17.59s
  Step 3 - Init Retarget:     1.02s
  Step 4 - Init Visualization: 0.00s
  Step 5 - Process Frames:    84.20s (avg: 0.079s/frame)
  Step 6 - Convert Arrays:    0.00s
  Step 7 - Forward Kinematics: 0.03s
  Step 8 - Save Data:         0.00s
Status: SUCCESS
==================================================

=== FILE SUCCESS - 2025-10-15 06:22:24 ===
File index: 010358
File number: 4359/11757
Input file: /data/retarget/locomotion/raw/AMASS_SMPLXG/HDM05/bk/HDM_bk_03-02_03_120_stageii.npz
Output file: ../robot/ik_based/pkl/010358.pkl
Processing time: 126.60 seconds
Total file time: 127.57 seconds
Status: SUCCESS
==================================================

=== SUCCESS LOG - 2025-10-15 06:24:15 ===
Input file: /data/retarget/locomotion/raw/AMASS_SMPLXG/HDM05/bk/HDM_bk_03-03_01_120_stageii.npz
Output file: ../robot/ik_based/pkl/010359.pkl
Robot type: unitree_g1
Processing time: 111.51 seconds

STEP-BY-STEP TIMING:
  Step 1 - Load SMPLX:        10.12s
  Step 2 - Align FPS:         20.82s
  Step 3 - Init Retarget:     0.54s
  Step 4 - Init Visualization: 0.00s
  Step 5 - Process Frames:    79.90s (avg: 0.072s/frame)
  Step 6 - Convert Arrays:    0.00s
  Step 7 - Forward Kinematics: 0.10s
  Step 8 - Save Data:         0.00s
Status: SUCCESS
==================================================

=== FILE SUCCESS - 2025-10-15 06:24:16 ===
File index: 010359
File number: 4360/11757
Input file: /data/retarget/locomotion/raw/AMASS_SMPLXG/HDM05/bk/HDM_bk_03-03_01_120_stageii.npz
Output file: ../robot/ik_based/pkl/010359.pkl
Processing time: 111.51 seconds
Total file time: 112.58 seconds
Status: SUCCESS
==================================================

=== SUCCESS LOG - 2025-10-15 06:26:12 ===
Input file: /data/retarget/locomotion/raw/AMASS_SMPLXG/HDM05/bk/HDM_bk_03-03_02_120_stageii.npz
Output file: ../robot/ik_based/pkl/010360.pkl
Robot type: unitree_g1
Processing time: 116.02 seconds

STEP-BY-STEP TIMING:
  Step 1 - Load SMPLX:        2.59s
  Step 2 - Align FPS:         8.83s
  Step 3 - Init Retarget:     0.72s
  Step 4 - Init Visualization: 0.00s
  Step 5 - Process Frames:    103.53s (avg: 0.083s/frame)
  Step 6 - Convert Arrays:    0.01s
  Step 7 - Forward Kinematics: 0.10s
  Step 8 - Save Data:         0.03s
Status: SUCCESS
==================================================

=== FILE SUCCESS - 2025-10-15 06:26:14 ===
File index: 010360
File number: 4361/11757
Input file: /data/retarget/locomotion/raw/AMASS_SMPLXG/HDM05/bk/HDM_bk_03-03_02_120_stageii.npz
Output file: ../robot/ik_based/pkl/010360.pkl
Processing time: 116.02 seconds
Total file time: 117.22 seconds
Status: SUCCESS
==================================================

=== SUCCESS LOG - 2025-10-15 06:27:56 ===
Input file: /data/retarget/locomotion/raw/AMASS_SMPLXG/HDM05/bk/HDM_bk_03-03_03_120_stageii.npz
Output file: ../robot/ik_based/pkl/010361.pkl
Robot type: unitree_g1
Processing time: 102.56 seconds

STEP-BY-STEP TIMING:
  Step 1 - Load SMPLX:        9.72s
  Step 2 - Align FPS:         7.81s
  Step 3 - Init Retarget:     0.28s
  Step 4 - Init Visualization: 0.00s
  Step 5 - Process Frames:    84.48s (avg: 0.071s/frame)
  Step 6 - Convert Arrays:    0.01s
  Step 7 - Forward Kinematics: 0.14s
  Step 8 - Save Data:         0.01s
Status: SUCCESS
==================================================

=== FILE SUCCESS - 2025-10-15 06:27:57 ===
File index: 010361
File number: 4362/11757
Input file: /data/retarget/locomotion/raw/AMASS_SMPLXG/HDM05/bk/HDM_bk_03-03_03_120_stageii.npz
Output file: ../robot/ik_based/pkl/010361.pkl
Processing time: 102.56 seconds
Total file time: 103.87 seconds
Status: SUCCESS
==================================================
