
=== SKIPPED (ALREADY EXISTS) - 2025-10-14 21:40:02 ===
File index: 008170
Input file: /data/retarget/locomotion/raw/AMASS_SMPLXG/EKUT/300/PushStandOpen_18_stageii.npz
Output file: ../robot/ik_based/pkl/008170.pkl
Status: SKIPPED (ALREADY EXISTS)
==================================================

=== SKIPPED (ALREADY EXISTS) - 2025-10-14 21:40:02 ===
File index: 008171
Input file: /data/retarget/locomotion/raw/AMASS_SMPLXG/EKUT/300/PushStandOpen_19_stageii.npz
Output file: ../robot/ik_based/pkl/008171.pkl
Status: SKIPPED (ALREADY EXISTS)
==================================================

=== SKIPPED (ALREADY EXISTS) - 2025-10-14 21:40:02 ===
File index: 008172
Input file: /data/retarget/locomotion/raw/AMASS_SMPLXG/EKUT/300/PushStandOpen_20_stageii.npz
Output file: ../robot/ik_based/pkl/008172.pkl
Status: SKIPPED (ALREADY EXISTS)
==================================================

=== SKIPPED (ALREADY EXISTS) - 2025-10-14 21:40:02 ===
File index: 008173
Input file: /data/retarget/locomotion/raw/AMASS_SMPLXG/EKUT/300/PushStandOpen_21_stageii.npz
Output file: ../robot/ik_based/pkl/008173.pkl
Status: SKIPPED (ALREADY EXISTS)
==================================================

=== SKIPPED (ALREADY EXISTS) - 2025-10-14 21:40:02 ===
File index: 008174
Input file: /data/retarget/locomotion/raw/AMASS_SMPLXG/EKUT/300/PushStandOpen_22_stageii.npz
Output file: ../robot/ik_based/pkl/008174.pkl
Status: SKIPPED (ALREADY EXISTS)
==================================================

=== SKIPPED (ALREADY EXISTS) - 2025-10-14 21:40:02 ===
File index: 008175
Input file: /data/retarget/locomotion/raw/AMASS_SMPLXG/EKUT/300/PushStandOpen_23_stageii.npz
Output file: ../robot/ik_based/pkl/008175.pkl
Status: SKIPPED (ALREADY EXISTS)
==================================================

=== SKIPPED (ALREADY EXISTS) - 2025-10-14 21:40:02 ===
File index: 008176
Input file: /data/retarget/locomotion/raw/AMASS_SMPLXG/EKUT/300/PushStandOpen_24_stageii.npz
Output file: ../robot/ik_based/pkl/008176.pkl
Status: SKIPPED (ALREADY EXISTS)
==================================================

=== SKIPPED (ALREADY EXISTS) - 2025-10-14 21:40:02 ===
File index: 008177
Input file: /data/retarget/locomotion/raw/AMASS_SMPLXG/EKUT/300/PushStandOpen_25_stageii.npz
Output file: ../robot/ik_based/pkl/008177.pkl
Status: SKIPPED (ALREADY EXISTS)
==================================================

=== SKIPPED (ALREADY EXISTS) - 2025-10-14 21:40:02 ===
File index: 008178
Input file: /data/retarget/locomotion/raw/AMASS_SMPLXG/EKUT/300/PushStandStraightPedar_01_stageii.npz
Output file: ../robot/ik_based/pkl/008178.pkl
Status: SKIPPED (ALREADY EXISTS)
==================================================

=== SKIPPED (ALREADY EXISTS) - 2025-10-14 21:40:02 ===
File index: 008179
Input file: /data/retarget/locomotion/raw/AMASS_SMPLXG/EKUT/300/PushStandStraightPedar_02_stageii.npz
Output file: ../robot/ik_based/pkl/008179.pkl
Status: SKIPPED (ALREADY EXISTS)
==================================================

=== SKIPPED (ALREADY EXISTS) - 2025-10-14 21:40:02 ===
File index: 008180
Input file: /data/retarget/locomotion/raw/AMASS_SMPLXG/EKUT/300/PushStandStraightPedar_03_stageii.npz
Output file: ../robot/ik_based/pkl/008180.pkl
Status: SKIPPED (ALREADY EXISTS)
==================================================

=== SKIPPED (ALREADY EXISTS) - 2025-10-14 21:40:02 ===
File index: 008181
Input file: /data/retarget/locomotion/raw/AMASS_SMPLXG/EKUT/300/PushStandStraightPedar_04_stageii.npz
Output file: ../robot/ik_based/pkl/008181.pkl
Status: SKIPPED (ALREADY EXISTS)
==================================================

=== SKIPPED (ALREADY EXISTS) - 2025-10-14 21:40:02 ===
File index: 008182
Input file: /data/retarget/locomotion/raw/AMASS_SMPLXG/EKUT/300/PushStandStraightPedar_05_stageii.npz
Output file: ../robot/ik_based/pkl/008182.pkl
Status: SKIPPED (ALREADY EXISTS)
==================================================

=== SKIPPED (ALREADY EXISTS) - 2025-10-14 21:40:02 ===
File index: 008183
Input file: /data/retarget/locomotion/raw/AMASS_SMPLXG/EKUT/300/PushStandStraightPedar_06_stageii.npz
Output file: ../robot/ik_based/pkl/008183.pkl
Status: SKIPPED (ALREADY EXISTS)
==================================================

=== SKIPPED (ALREADY EXISTS) - 2025-10-14 21:40:02 ===
File index: 008184
Input file: /data/retarget/locomotion/raw/AMASS_SMPLXG/EKUT/300/PushStandStraightPedar_07_stageii.npz
Output file: ../robot/ik_based/pkl/008184.pkl
Status: SKIPPED (ALREADY EXISTS)
==================================================

=== SKIPPED (ALREADY EXISTS) - 2025-10-14 21:40:02 ===
File index: 008185
Input file: /data/retarget/locomotion/raw/AMASS_SMPLXG/EKUT/300/PushStandStraightPedar_08_stageii.npz
Output file: ../robot/ik_based/pkl/008185.pkl
Status: SKIPPED (ALREADY EXISTS)
==================================================

=== SKIPPED (ALREADY EXISTS) - 2025-10-14 21:40:02 ===
File index: 008186
Input file: /data/retarget/locomotion/raw/AMASS_SMPLXG/EKUT/300/PushStandStraightPedar_09_stageii.npz
Output file: ../robot/ik_based/pkl/008186.pkl
Status: SKIPPED (ALREADY EXISTS)
==================================================

=== SKIPPED (ALREADY EXISTS) - 2025-10-14 21:40:02 ===
File index: 008187
Input file: /data/retarget/locomotion/raw/AMASS_SMPLXG/EKUT/300/PushStandStraightPedar_10_stageii.npz
Output file: ../robot/ik_based/pkl/008187.pkl
Status: SKIPPED (ALREADY EXISTS)
==================================================

=== SKIPPED (ALREADY EXISTS) - 2025-10-14 21:40:02 ===
File index: 008188
Input file: /data/retarget/locomotion/raw/AMASS_SMPLXG/EKUT/300/PushStandStraight_01_stageii.npz
Output file: ../robot/ik_based/pkl/008188.pkl
Status: SKIPPED (ALREADY EXISTS)
==================================================

=== SKIPPED (ALREADY EXISTS) - 2025-10-14 21:40:02 ===
File index: 008189
Input file: /data/retarget/locomotion/raw/AMASS_SMPLXG/EKUT/300/PushStandStraight_02_stageii.npz
Output file: ../robot/ik_based/pkl/008189.pkl
Status: SKIPPED (ALREADY EXISTS)
==================================================

=== SKIPPED (ALREADY EXISTS) - 2025-10-14 21:40:02 ===
File index: 008190
Input file: /data/retarget/locomotion/raw/AMASS_SMPLXG/EKUT/300/PushStandStraight_03_stageii.npz
Output file: ../robot/ik_based/pkl/008190.pkl
Status: SKIPPED (ALREADY EXISTS)
==================================================

=== SKIPPED (ALREADY EXISTS) - 2025-10-14 21:40:02 ===
File index: 008191
Input file: /data/retarget/locomotion/raw/AMASS_SMPLXG/EKUT/300/PushStandStraight_04_stageii.npz
Output file: ../robot/ik_based/pkl/008191.pkl
Status: SKIPPED (ALREADY EXISTS)
==================================================

=== SKIPPED (ALREADY EXISTS) - 2025-10-14 21:40:02 ===
File index: 008192
Input file: /data/retarget/locomotion/raw/AMASS_SMPLXG/EKUT/300/PushStandStraight_05_stageii.npz
Output file: ../robot/ik_based/pkl/008192.pkl
Status: SKIPPED (ALREADY EXISTS)
==================================================

=== SKIPPED (ALREADY EXISTS) - 2025-10-14 21:40:02 ===
File index: 008193
Input file: /data/retarget/locomotion/raw/AMASS_SMPLXG/EKUT/300/PushStandStraight_06_stageii.npz
Output file: ../robot/ik_based/pkl/008193.pkl
Status: SKIPPED (ALREADY EXISTS)
==================================================

=== SKIPPED (ALREADY EXISTS) - 2025-10-14 21:40:02 ===
File index: 008194
Input file: /data/retarget/locomotion/raw/AMASS_SMPLXG/EKUT/300/PushStandStraight_07_stageii.npz
Output file: ../robot/ik_based/pkl/008194.pkl
Status: SKIPPED (ALREADY EXISTS)
==================================================

=== SKIPPED (ALREADY EXISTS) - 2025-10-14 21:40:02 ===
File index: 008195
Input file: /data/retarget/locomotion/raw/AMASS_SMPLXG/EKUT/300/PushStandStraight_08_stageii.npz
Output file: ../robot/ik_based/pkl/008195.pkl
Status: SKIPPED (ALREADY EXISTS)
==================================================

=== SKIPPED (ALREADY EXISTS) - 2025-10-14 21:40:02 ===
File index: 008196
Input file: /data/retarget/locomotion/raw/AMASS_SMPLXG/EKUT/300/PushStandStraight_09_stageii.npz
Output file: ../robot/ik_based/pkl/008196.pkl
Status: SKIPPED (ALREADY EXISTS)
==================================================

=== SKIPPED (ALREADY EXISTS) - 2025-10-14 21:40:02 ===
File index: 008197
Input file: /data/retarget/locomotion/raw/AMASS_SMPLXG/EKUT/300/PushStandStraight_10_stageii.npz
Output file: ../robot/ik_based/pkl/008197.pkl
Status: SKIPPED (ALREADY EXISTS)
==================================================

=== SKIPPED (ALREADY EXISTS) - 2025-10-14 21:40:02 ===
File index: 008198
Input file: /data/retarget/locomotion/raw/AMASS_SMPLXG/EKUT/300/PushStandTransPedar_01_stageii.npz
Output file: ../robot/ik_based/pkl/008198.pkl
Status: SKIPPED (ALREADY EXISTS)
==================================================

=== SKIPPED (ALREADY EXISTS) - 2025-10-14 21:40:02 ===
File index: 008199
Input file: /data/retarget/locomotion/raw/AMASS_SMPLXG/EKUT/300/PushStandTransPedar_02_stageii.npz
Output file: ../robot/ik_based/pkl/008199.pkl
Status: SKIPPED (ALREADY EXISTS)
==================================================

=== SKIPPED (ALREADY EXISTS) - 2025-10-14 21:40:02 ===
File index: 008200
Input file: /data/retarget/locomotion/raw/AMASS_SMPLXG/EKUT/300/PushStandTransPedar_03_stageii.npz
Output file: ../robot/ik_based/pkl/008200.pkl
Status: SKIPPED (ALREADY EXISTS)
==================================================

=== SKIPPED (ALREADY EXISTS) - 2025-10-14 21:40:02 ===
File index: 008201
Input file: /data/retarget/locomotion/raw/AMASS_SMPLXG/EKUT/300/PushStandTransPedar_04_stageii.npz
Output file: ../robot/ik_based/pkl/008201.pkl
Status: SKIPPED (ALREADY EXISTS)
==================================================

=== SKIPPED (ALREADY EXISTS) - 2025-10-14 21:40:02 ===
File index: 008202
Input file: /data/retarget/locomotion/raw/AMASS_SMPLXG/EKUT/300/PushStandTransPedar_05_stageii.npz
Output file: ../robot/ik_based/pkl/008202.pkl
Status: SKIPPED (ALREADY EXISTS)
==================================================

=== SKIPPED (ALREADY EXISTS) - 2025-10-14 21:40:02 ===
File index: 008203
Input file: /data/retarget/locomotion/raw/AMASS_SMPLXG/EKUT/300/PushStandTransPedar_06_stageii.npz
Output file: ../robot/ik_based/pkl/008203.pkl
Status: SKIPPED (ALREADY EXISTS)
==================================================

=== SKIPPED (ALREADY EXISTS) - 2025-10-14 21:40:02 ===
File index: 008204
Input file: /data/retarget/locomotion/raw/AMASS_SMPLXG/EKUT/300/PushStandTransPedar_07_stageii.npz
Output file: ../robot/ik_based/pkl/008204.pkl
Status: SKIPPED (ALREADY EXISTS)
==================================================

=== SKIPPED (ALREADY EXISTS) - 2025-10-14 21:40:02 ===
File index: 008205
Input file: /data/retarget/locomotion/raw/AMASS_SMPLXG/EKUT/300/PushStandTransPedar_08_stageii.npz
Output file: ../robot/ik_based/pkl/008205.pkl
Status: SKIPPED (ALREADY EXISTS)
==================================================

=== SKIPPED (ALREADY EXISTS) - 2025-10-14 21:40:02 ===
File index: 008206
Input file: /data/retarget/locomotion/raw/AMASS_SMPLXG/EKUT/300/PushStandTransPedar_09_stageii.npz
Output file: ../robot/ik_based/pkl/008206.pkl
Status: SKIPPED (ALREADY EXISTS)
==================================================

=== SKIPPED (ALREADY EXISTS) - 2025-10-14 21:40:02 ===
File index: 008207
Input file: /data/retarget/locomotion/raw/AMASS_SMPLXG/EKUT/300/PushStandTransPedar_10_stageii.npz
Output file: ../robot/ik_based/pkl/008207.pkl
Status: SKIPPED (ALREADY EXISTS)
==================================================

=== SKIPPED (ALREADY EXISTS) - 2025-10-14 21:40:02 ===
File index: 008208
Input file: /data/retarget/locomotion/raw/AMASS_SMPLXG/EKUT/300/PushStandTrans_01_stageii.npz
Output file: ../robot/ik_based/pkl/008208.pkl
Status: SKIPPED (ALREADY EXISTS)
==================================================

=== SKIPPED (ALREADY EXISTS) - 2025-10-14 21:40:02 ===
File index: 008209
Input file: /data/retarget/locomotion/raw/AMASS_SMPLXG/EKUT/300/PushStandTrans_02_stageii.npz
Output file: ../robot/ik_based/pkl/008209.pkl
Status: SKIPPED (ALREADY EXISTS)
==================================================

=== SKIPPED (ALREADY EXISTS) - 2025-10-14 21:40:02 ===
File index: 008210
Input file: /data/retarget/locomotion/raw/AMASS_SMPLXG/EKUT/300/PushStandTrans_03_stageii.npz
Output file: ../robot/ik_based/pkl/008210.pkl
Status: SKIPPED (ALREADY EXISTS)
==================================================

=== SKIPPED (ALREADY EXISTS) - 2025-10-14 21:40:02 ===
File index: 008211
Input file: /data/retarget/locomotion/raw/AMASS_SMPLXG/EKUT/300/PushStandTrans_04_stageii.npz
Output file: ../robot/ik_based/pkl/008211.pkl
Status: SKIPPED (ALREADY EXISTS)
==================================================

=== SKIPPED (ALREADY EXISTS) - 2025-10-14 21:40:02 ===
File index: 008212
Input file: /data/retarget/locomotion/raw/AMASS_SMPLXG/EKUT/300/PushStandTrans_05_stageii.npz
Output file: ../robot/ik_based/pkl/008212.pkl
Status: SKIPPED (ALREADY EXISTS)
==================================================

=== SKIPPED (ALREADY EXISTS) - 2025-10-14 21:40:02 ===
File index: 008213
Input file: /data/retarget/locomotion/raw/AMASS_SMPLXG/EKUT/300/PushStandTrans_06_stageii.npz
Output file: ../robot/ik_based/pkl/008213.pkl
Status: SKIPPED (ALREADY EXISTS)
==================================================

=== SKIPPED (ALREADY EXISTS) - 2025-10-14 21:40:02 ===
File index: 008214
Input file: /data/retarget/locomotion/raw/AMASS_SMPLXG/EKUT/300/PushStandTrans_07_stageii.npz
Output file: ../robot/ik_based/pkl/008214.pkl
Status: SKIPPED (ALREADY EXISTS)
==================================================

=== SKIPPED (ALREADY EXISTS) - 2025-10-14 21:40:02 ===
File index: 008215
Input file: /data/retarget/locomotion/raw/AMASS_SMPLXG/EKUT/300/PushStandTrans_08_stageii.npz
Output file: ../robot/ik_based/pkl/008215.pkl
Status: SKIPPED (ALREADY EXISTS)
==================================================

=== SKIPPED (ALREADY EXISTS) - 2025-10-14 21:40:02 ===
File index: 008216
Input file: /data/retarget/locomotion/raw/AMASS_SMPLXG/EKUT/300/PushStandTrans_09_stageii.npz
Output file: ../robot/ik_based/pkl/008216.pkl
Status: SKIPPED (ALREADY EXISTS)
==================================================

=== SKIPPED (ALREADY EXISTS) - 2025-10-14 21:40:02 ===
File index: 008217
Input file: /data/retarget/locomotion/raw/AMASS_SMPLXG/EKUT/300/PushStandTrans_10_stageii.npz
Output file: ../robot/ik_based/pkl/008217.pkl
Status: SKIPPED (ALREADY EXISTS)
==================================================

=== SKIPPED (ALREADY EXISTS) - 2025-10-14 21:40:02 ===
File index: 008218
Input file: /data/retarget/locomotion/raw/AMASS_SMPLXG/EKUT/300/Tpose_stageii.npz
Output file: ../robot/ik_based/pkl/008218.pkl
Status: SKIPPED (ALREADY EXISTS)
==================================================

=== ERROR LOG - 2025-10-14 21:40:05 ===
Input file: /data/retarget/locomotion/raw/AMASS_SMPLXG/EKUT/300/male_stagei.npz
Output file: ../robot/ik_based/pkl/008219.pkl
Robot type: unitree_g1
Processing time: 3.08 seconds
Error message: 'pose_body is not a file in the archive'
Error type: KeyError
==================================================

=== FILE FAILURE - 2025-10-14 21:40:05 ===
File index: 008219
File number: 50/9587
Input file: /data/retarget/locomotion/raw/AMASS_SMPLXG/EKUT/300/male_stagei.npz
Output file: ../robot/ik_based/pkl/008219.pkl
Processing time: 3.08 seconds
Total file time: 3.44 seconds
Status: FAILED
==================================================

=== SKIPPED (ALREADY EXISTS) - 2025-10-14 21:40:05 ===
File index: 008220
Input file: /data/retarget/locomotion/raw/AMASS_SMPLXG/Eyes_Japan_Dataset/aita/accident-02-dodge_fast-aita_stageii.npz
Output file: ../robot/ik_based/pkl/008220.pkl
Status: SKIPPED (ALREADY EXISTS)
==================================================

=== SKIPPED (ALREADY EXISTS) - 2025-10-14 21:40:05 ===
File index: 008221
Input file: /data/retarget/locomotion/raw/AMASS_SMPLXG/Eyes_Japan_Dataset/aita/accident-03-damage_head-aita_stageii.npz
Output file: ../robot/ik_based/pkl/008221.pkl
Status: SKIPPED (ALREADY EXISTS)
==================================================

=== SKIPPED (ALREADY EXISTS) - 2025-10-14 21:40:05 ===
File index: 008222
Input file: /data/retarget/locomotion/raw/AMASS_SMPLXG/Eyes_Japan_Dataset/aita/accident-04-damage_right_leg-aita_stageii.npz
Output file: ../robot/ik_based/pkl/008222.pkl
Status: SKIPPED (ALREADY EXISTS)
==================================================

=== SKIPPED (ALREADY EXISTS) - 2025-10-14 21:40:05 ===
File index: 008223
Input file: /data/retarget/locomotion/raw/AMASS_SMPLXG/Eyes_Japan_Dataset/aita/accident-06-damage_left_leg-aita_stageii.npz
Output file: ../robot/ik_based/pkl/008223.pkl
Status: SKIPPED (ALREADY EXISTS)
==================================================

=== SKIPPED (ALREADY EXISTS) - 2025-10-14 21:40:05 ===
File index: 008224
Input file: /data/retarget/locomotion/raw/AMASS_SMPLXG/Eyes_Japan_Dataset/aita/accident-08-damage_rightfoot-aita_stageii.npz
Output file: ../robot/ik_based/pkl/008224.pkl
Status: SKIPPED (ALREADY EXISTS)
==================================================

=== SKIPPED (ALREADY EXISTS) - 2025-10-14 21:40:05 ===
File index: 008225
Input file: /data/retarget/locomotion/raw/AMASS_SMPLXG/Eyes_Japan_Dataset/aita/accident-09-damage_leftfoot-aita_stageii.npz
Output file: ../robot/ik_based/pkl/008225.pkl
Status: SKIPPED (ALREADY EXISTS)
==================================================

=== SKIPPED (ALREADY EXISTS) - 2025-10-14 21:40:05 ===
File index: 008226
Input file: /data/retarget/locomotion/raw/AMASS_SMPLXG/Eyes_Japan_Dataset/aita/accident-10-spasm-aita_stageii.npz
Output file: ../robot/ik_based/pkl/008226.pkl
Status: SKIPPED (ALREADY EXISTS)
==================================================

=== SKIPPED (ALREADY EXISTS) - 2025-10-14 21:40:05 ===
File index: 008227
Input file: /data/retarget/locomotion/raw/AMASS_SMPLXG/Eyes_Japan_Dataset/aita/accident-12-twist_foot-aita_stageii.npz
Output file: ../robot/ik_based/pkl/008227.pkl
Status: SKIPPED (ALREADY EXISTS)
==================================================

=== SKIPPED (ALREADY EXISTS) - 2025-10-14 21:40:05 ===
File index: 008228
Input file: /data/retarget/locomotion/raw/AMASS_SMPLXG/Eyes_Japan_Dataset/aita/accident-13-damage_back-aita_stageii.npz
Output file: ../robot/ik_based/pkl/008228.pkl
Status: SKIPPED (ALREADY EXISTS)
==================================================

=== SKIPPED (ALREADY EXISTS) - 2025-10-14 21:40:05 ===
File index: 008229
Input file: /data/retarget/locomotion/raw/AMASS_SMPLXG/Eyes_Japan_Dataset/aita/accident-14-dodge_turn_down-aita_stageii.npz
Output file: ../robot/ik_based/pkl/008229.pkl
Status: SKIPPED (ALREADY EXISTS)
==================================================

=== SKIPPED (ALREADY EXISTS) - 2025-10-14 21:40:05 ===
File index: 008230
Input file: /data/retarget/locomotion/raw/AMASS_SMPLXG/Eyes_Japan_Dataset/aita/accident-15-knock_head_2-aita_stageii.npz
Output file: ../robot/ik_based/pkl/008230.pkl
Status: SKIPPED (ALREADY EXISTS)
==================================================

=== SKIPPED (ALREADY EXISTS) - 2025-10-14 21:40:05 ===
File index: 008231
Input file: /data/retarget/locomotion/raw/AMASS_SMPLXG/Eyes_Japan_Dataset/aita/gesture_etc-03-set_3-aita_stageii.npz
Output file: ../robot/ik_based/pkl/008231.pkl
Status: SKIPPED (ALREADY EXISTS)
==================================================

=== SKIPPED (ALREADY EXISTS) - 2025-10-14 21:40:05 ===
File index: 008232
Input file: /data/retarget/locomotion/raw/AMASS_SMPLXG/Eyes_Japan_Dataset/aita/gesture_etc-04-set_4-aita_stageii.npz
Output file: ../robot/ik_based/pkl/008232.pkl
Status: SKIPPED (ALREADY EXISTS)
==================================================

=== SKIPPED (ALREADY EXISTS) - 2025-10-14 21:40:05 ===
File index: 008233
Input file: /data/retarget/locomotion/raw/AMASS_SMPLXG/Eyes_Japan_Dataset/aita/gesture_etc-05-touch_nose-aita_stageii.npz
Output file: ../robot/ik_based/pkl/008233.pkl
Status: SKIPPED (ALREADY EXISTS)
==================================================

=== SKIPPED (ALREADY EXISTS) - 2025-10-14 21:40:05 ===
File index: 008234
Input file: /data/retarget/locomotion/raw/AMASS_SMPLXG/Eyes_Japan_Dataset/aita/gesture_etc-06-jiggle_knee-aita_stageii.npz
Output file: ../robot/ik_based/pkl/008234.pkl
Status: SKIPPED (ALREADY EXISTS)
==================================================

=== SKIPPED (ALREADY EXISTS) - 2025-10-14 21:40:05 ===
File index: 008235
Input file: /data/retarget/locomotion/raw/AMASS_SMPLXG/Eyes_Japan_Dataset/aita/gesture_etc-07-over_stretch-aita_stageii.npz
Output file: ../robot/ik_based/pkl/008235.pkl
Status: SKIPPED (ALREADY EXISTS)
==================================================

=== SKIPPED (ALREADY EXISTS) - 2025-10-14 21:40:05 ===
File index: 008236
Input file: /data/retarget/locomotion/raw/AMASS_SMPLXG/Eyes_Japan_Dataset/aita/gesture_etc-08-stretch-aita_stageii.npz
Output file: ../robot/ik_based/pkl/008236.pkl
Status: SKIPPED (ALREADY EXISTS)
==================================================

=== SKIPPED (ALREADY EXISTS) - 2025-10-14 21:40:05 ===
File index: 008237
Input file: /data/retarget/locomotion/raw/AMASS_SMPLXG/Eyes_Japan_Dataset/aita/gesture_etc-09-scratch-aita_stageii.npz
Output file: ../robot/ik_based/pkl/008237.pkl
Status: SKIPPED (ALREADY EXISTS)
==================================================

=== SKIPPED (ALREADY EXISTS) - 2025-10-14 21:40:05 ===
File index: 008238
Input file: /data/retarget/locomotion/raw/AMASS_SMPLXG/Eyes_Japan_Dataset/aita/gesture_etc-10-snip_nail-aita_stageii.npz
Output file: ../robot/ik_based/pkl/008238.pkl
Status: SKIPPED (ALREADY EXISTS)
==================================================

=== SKIPPED (ALREADY EXISTS) - 2025-10-14 21:40:05 ===
File index: 008239
Input file: /data/retarget/locomotion/raw/AMASS_SMPLXG/Eyes_Japan_Dataset/aita/gesture_etc-11-hold_arms-aita_stageii.npz
Output file: ../robot/ik_based/pkl/008239.pkl
Status: SKIPPED (ALREADY EXISTS)
==================================================

=== SKIPPED (ALREADY EXISTS) - 2025-10-14 21:40:05 ===
File index: 008240
Input file: /data/retarget/locomotion/raw/AMASS_SMPLXG/Eyes_Japan_Dataset/aita/gesture_etc-14-apologize-aita_stageii.npz
Output file: ../robot/ik_based/pkl/008240.pkl
Status: SKIPPED (ALREADY EXISTS)
==================================================

=== SKIPPED (ALREADY EXISTS) - 2025-10-14 21:40:05 ===
File index: 008241
Input file: /data/retarget/locomotion/raw/AMASS_SMPLXG/Eyes_Japan_Dataset/aita/gesture_etc-16-dryer-aita_stageii.npz
Output file: ../robot/ik_based/pkl/008241.pkl
Status: SKIPPED (ALREADY EXISTS)
==================================================

=== SKIPPED (ALREADY EXISTS) - 2025-10-14 21:40:05 ===
File index: 008242
Input file: /data/retarget/locomotion/raw/AMASS_SMPLXG/Eyes_Japan_Dataset/aita/gesture_etc-17-drink-aita_stageii.npz
Output file: ../robot/ik_based/pkl/008242.pkl
Status: SKIPPED (ALREADY EXISTS)
==================================================

=== SKIPPED (ALREADY EXISTS) - 2025-10-14 21:40:05 ===
File index: 008243
Input file: /data/retarget/locomotion/raw/AMASS_SMPLXG/Eyes_Japan_Dataset/aita/gesture_etc-18-eat-aita_stageii.npz
Output file: ../robot/ik_based/pkl/008243.pkl
Status: SKIPPED (ALREADY EXISTS)
==================================================

=== SKIPPED (ALREADY EXISTS) - 2025-10-14 21:40:05 ===
File index: 008244
Input file: /data/retarget/locomotion/raw/AMASS_SMPLXG/Eyes_Japan_Dataset/aita/gesture_etc-19-fold_legs-aita_stageii.npz
Output file: ../robot/ik_based/pkl/008244.pkl
Status: SKIPPED (ALREADY EXISTS)
==================================================

=== SKIPPED (ALREADY EXISTS) - 2025-10-14 21:40:05 ===
File index: 008245
Input file: /data/retarget/locomotion/raw/AMASS_SMPLXG/Eyes_Japan_Dataset/aita/gesture_etc-20-swing_chair-aita_stageii.npz
Output file: ../robot/ik_based/pkl/008245.pkl
Status: SKIPPED (ALREADY EXISTS)
==================================================

=== SKIPPED (ALREADY EXISTS) - 2025-10-14 21:40:05 ===
File index: 008246
Input file: /data/retarget/locomotion/raw/AMASS_SMPLXG/Eyes_Japan_Dataset/aita/gesture_etc-21-clapping-aita_stageii.npz
Output file: ../robot/ik_based/pkl/008246.pkl
Status: SKIPPED (ALREADY EXISTS)
==================================================

=== SKIPPED (ALREADY EXISTS) - 2025-10-14 21:40:05 ===
File index: 008247
Input file: /data/retarget/locomotion/raw/AMASS_SMPLXG/Eyes_Japan_Dataset/aita/gesture_etc-22-mobile_receive-aita_stageii.npz
Output file: ../robot/ik_based/pkl/008247.pkl
Status: SKIPPED (ALREADY EXISTS)
==================================================

=== SKIPPED (ALREADY EXISTS) - 2025-10-14 21:40:05 ===
File index: 008248
Input file: /data/retarget/locomotion/raw/AMASS_SMPLXG/Eyes_Japan_Dataset/aita/gesture_etc-23-mobile_call-aita_stageii.npz
Output file: ../robot/ik_based/pkl/008248.pkl
Status: SKIPPED (ALREADY EXISTS)
==================================================

=== SKIPPED (ALREADY EXISTS) - 2025-10-14 21:40:05 ===
File index: 008249
Input file: /data/retarget/locomotion/raw/AMASS_SMPLXG/Eyes_Japan_Dataset/aita/gesture_etc-26-hit_mosquito-aita_stageii.npz
Output file: ../robot/ik_based/pkl/008249.pkl
Status: SKIPPED (ALREADY EXISTS)
==================================================

=== SKIPPED (ALREADY EXISTS) - 2025-10-14 21:40:05 ===
File index: 008250
Input file: /data/retarget/locomotion/raw/AMASS_SMPLXG/Eyes_Japan_Dataset/aita/gesture_etc-29-pantomime-aita_stageii.npz
Output file: ../robot/ik_based/pkl/008250.pkl
Status: SKIPPED (ALREADY EXISTS)
==================================================

=== SKIPPED (ALREADY EXISTS) - 2025-10-14 21:40:05 ===
File index: 008251
Input file: /data/retarget/locomotion/raw/AMASS_SMPLXG/Eyes_Japan_Dataset/aita/gesture_etc-30-fxxk-aita_stageii.npz
Output file: ../robot/ik_based/pkl/008251.pkl
Status: SKIPPED (ALREADY EXISTS)
==================================================

=== SKIPPED (ALREADY EXISTS) - 2025-10-14 21:40:05 ===
File index: 008252
Input file: /data/retarget/locomotion/raw/AMASS_SMPLXG/Eyes_Japan_Dataset/aita/gesture_etc-31-ok-aita_stageii.npz
Output file: ../robot/ik_based/pkl/008252.pkl
Status: SKIPPED (ALREADY EXISTS)
==================================================

=== SKIPPED (ALREADY EXISTS) - 2025-10-14 21:40:05 ===
File index: 008253
Input file: /data/retarget/locomotion/raw/AMASS_SMPLXG/Eyes_Japan_Dataset/aita/gesture_etc-32-no-aita_stageii.npz
Output file: ../robot/ik_based/pkl/008253.pkl
Status: SKIPPED (ALREADY EXISTS)
==================================================

=== SKIPPED (ALREADY EXISTS) - 2025-10-14 21:40:05 ===
File index: 008254
Input file: /data/retarget/locomotion/raw/AMASS_SMPLXG/Eyes_Japan_Dataset/aita/gesture_etc-33-watch_here-aita_stageii.npz
Output file: ../robot/ik_based/pkl/008254.pkl
Status: SKIPPED (ALREADY EXISTS)
==================================================

=== SKIPPED (ALREADY EXISTS) - 2025-10-14 21:40:05 ===
File index: 008255
Input file: /data/retarget/locomotion/raw/AMASS_SMPLXG/Eyes_Japan_Dataset/aita/gesture_etc-34-peace-aita_stageii.npz
Output file: ../robot/ik_based/pkl/008255.pkl
Status: SKIPPED (ALREADY EXISTS)
==================================================

=== SKIPPED (ALREADY EXISTS) - 2025-10-14 21:40:05 ===
File index: 008256
Input file: /data/retarget/locomotion/raw/AMASS_SMPLXG/Eyes_Japan_Dataset/aita/gesture_etc-35-west_side-aita_stageii.npz
Output file: ../robot/ik_based/pkl/008256.pkl
Status: SKIPPED (ALREADY EXISTS)
==================================================

=== SKIPPED (ALREADY EXISTS) - 2025-10-14 21:40:05 ===
File index: 008257
Input file: /data/retarget/locomotion/raw/AMASS_SMPLXG/Eyes_Japan_Dataset/aita/gesture_etc-37-gay-aita_stageii.npz
Output file: ../robot/ik_based/pkl/008257.pkl
Status: SKIPPED (ALREADY EXISTS)
==================================================

=== SKIPPED (ALREADY EXISTS) - 2025-10-14 21:40:05 ===
File index: 008258
Input file: /data/retarget/locomotion/raw/AMASS_SMPLXG/Eyes_Japan_Dataset/aita/gesture_etc-38-hand_language-aita_stageii.npz
Output file: ../robot/ik_based/pkl/008258.pkl
Status: SKIPPED (ALREADY EXISTS)
==================================================

=== SKIPPED (ALREADY EXISTS) - 2025-10-14 21:40:05 ===
File index: 008259
Input file: /data/retarget/locomotion/raw/AMASS_SMPLXG/Eyes_Japan_Dataset/aita/gesture_etc-39-giant_baba-aita_stageii.npz
Output file: ../robot/ik_based/pkl/008259.pkl
Status: SKIPPED (ALREADY EXISTS)
==================================================

=== SKIPPED (ALREADY EXISTS) - 2025-10-14 21:40:05 ===
File index: 008260
Input file: /data/retarget/locomotion/raw/AMASS_SMPLXG/Eyes_Japan_Dataset/aita/gesture_etc-40-head_banging-aita_stageii.npz
Output file: ../robot/ik_based/pkl/008260.pkl
Status: SKIPPED (ALREADY EXISTS)
==================================================

=== SKIPPED (ALREADY EXISTS) - 2025-10-14 21:40:05 ===
File index: 008261
Input file: /data/retarget/locomotion/raw/AMASS_SMPLXG/Eyes_Japan_Dataset/aita/gesture_etc-41-mosh-aita_stageii.npz
Output file: ../robot/ik_based/pkl/008261.pkl
Status: SKIPPED (ALREADY EXISTS)
==================================================

=== SKIPPED (ALREADY EXISTS) - 2025-10-14 21:40:05 ===
File index: 008262
Input file: /data/retarget/locomotion/raw/AMASS_SMPLXG/Eyes_Japan_Dataset/aita/gesture_etc-42-hung_over-aita_stageii.npz
Output file: ../robot/ik_based/pkl/008262.pkl
Status: SKIPPED (ALREADY EXISTS)
==================================================

=== SKIPPED (ALREADY EXISTS) - 2025-10-14 21:40:05 ===
File index: 008263
Input file: /data/retarget/locomotion/raw/AMASS_SMPLXG/Eyes_Japan_Dataset/aita/gesture_etc-43-brush_teeth-aita_stageii.npz
Output file: ../robot/ik_based/pkl/008263.pkl
Status: SKIPPED (ALREADY EXISTS)
==================================================

=== SKIPPED (ALREADY EXISTS) - 2025-10-14 21:40:05 ===
File index: 008264
Input file: /data/retarget/locomotion/raw/AMASS_SMPLXG/Eyes_Japan_Dataset/aita/gesture_etc-45-feel_dizzy_-aita_stageii.npz
Output file: ../robot/ik_based/pkl/008264.pkl
Status: SKIPPED (ALREADY EXISTS)
==================================================

=== SKIPPED (ALREADY EXISTS) - 2025-10-14 21:40:05 ===
File index: 008265
Input file: /data/retarget/locomotion/raw/AMASS_SMPLXG/Eyes_Japan_Dataset/aita/gesture_etc-47-big_drum-aita_stageii.npz
Output file: ../robot/ik_based/pkl/008265.pkl
Status: SKIPPED (ALREADY EXISTS)
==================================================

=== SKIPPED (ALREADY EXISTS) - 2025-10-14 21:40:05 ===
File index: 008266
Input file: /data/retarget/locomotion/raw/AMASS_SMPLXG/Eyes_Japan_Dataset/aita/gesture_etc-48-medium_drum-aita_stageii.npz
Output file: ../robot/ik_based/pkl/008266.pkl
Status: SKIPPED (ALREADY EXISTS)
==================================================

=== SKIPPED (ALREADY EXISTS) - 2025-10-14 21:40:05 ===
File index: 008267
Input file: /data/retarget/locomotion/raw/AMASS_SMPLXG/Eyes_Japan_Dataset/aita/gesture_etc-49-taiko_under-aita_stageii.npz
Output file: ../robot/ik_based/pkl/008267.pkl
Status: SKIPPED (ALREADY EXISTS)
==================================================

=== SKIPPED (ALREADY EXISTS) - 2025-10-14 21:40:05 ===
File index: 008268
Input file: /data/retarget/locomotion/raw/AMASS_SMPLXG/Eyes_Japan_Dataset/aita/gesture_etc-50-syuriken-aita_stageii.npz
Output file: ../robot/ik_based/pkl/008268.pkl
Status: SKIPPED (ALREADY EXISTS)
==================================================

=== SKIPPED (ALREADY EXISTS) - 2025-10-14 21:40:05 ===
File index: 008269
Input file: /data/retarget/locomotion/raw/AMASS_SMPLXG/Eyes_Japan_Dataset/aita/greeting-01-hello-aita_stageii.npz
Output file: ../robot/ik_based/pkl/008269.pkl
Status: SKIPPED (ALREADY EXISTS)
==================================================

=== SKIPPED (ALREADY EXISTS) - 2025-10-14 21:40:05 ===
File index: 008270
Input file: /data/retarget/locomotion/raw/AMASS_SMPLXG/Eyes_Japan_Dataset/aita/greeting-02-bye-aita_stageii.npz
Output file: ../robot/ik_based/pkl/008270.pkl
Status: SKIPPED (ALREADY EXISTS)
==================================================

=== SKIPPED (ALREADY EXISTS) - 2025-10-14 21:40:05 ===
File index: 008271
Input file: /data/retarget/locomotion/raw/AMASS_SMPLXG/Eyes_Japan_Dataset/aita/greeting-03-election-aita_stageii.npz
Output file: ../robot/ik_based/pkl/008271.pkl
Status: SKIPPED (ALREADY EXISTS)
==================================================

=== SKIPPED (ALREADY EXISTS) - 2025-10-14 21:40:05 ===
File index: 008272
Input file: /data/retarget/locomotion/raw/AMASS_SMPLXG/Eyes_Japan_Dataset/aita/greeting-04-salute_(head)-aita_stageii.npz
Output file: ../robot/ik_based/pkl/008272.pkl
Status: SKIPPED (ALREADY EXISTS)
==================================================

=== SKIPPED (ALREADY EXISTS) - 2025-10-14 21:40:05 ===
File index: 008273
Input file: /data/retarget/locomotion/raw/AMASS_SMPLXG/Eyes_Japan_Dataset/aita/greeting-05-salute_(chest)-aita_stageii.npz
Output file: ../robot/ik_based/pkl/008273.pkl
Status: SKIPPED (ALREADY EXISTS)
==================================================

=== SKIPPED (ALREADY EXISTS) - 2025-10-14 21:40:05 ===
File index: 008274
Input file: /data/retarget/locomotion/raw/AMASS_SMPLXG/Eyes_Japan_Dataset/aita/greeting-07-bow-aita_stageii.npz
Output file: ../robot/ik_based/pkl/008274.pkl
Status: SKIPPED (ALREADY EXISTS)
==================================================

=== SKIPPED (ALREADY EXISTS) - 2025-10-14 21:40:05 ===
File index: 008275
Input file: /data/retarget/locomotion/raw/AMASS_SMPLXG/Eyes_Japan_Dataset/aita/greeting-08-shakehands-aita_stageii.npz
Output file: ../robot/ik_based/pkl/008275.pkl
Status: SKIPPED (ALREADY EXISTS)
==================================================

=== SKIPPED (ALREADY EXISTS) - 2025-10-14 21:40:05 ===
File index: 008276
Input file: /data/retarget/locomotion/raw/AMASS_SMPLXG/Eyes_Japan_Dataset/aita/greeting-09-certificate-aita_stageii.npz
Output file: ../robot/ik_based/pkl/008276.pkl
Status: SKIPPED (ALREADY EXISTS)
==================================================

=== SKIPPED (ALREADY EXISTS) - 2025-10-14 21:40:05 ===
File index: 008277
Input file: /data/retarget/locomotion/raw/AMASS_SMPLXG/Eyes_Japan_Dataset/aita/greeting-10-card_exchange-aita_stageii.npz
Output file: ../robot/ik_based/pkl/008277.pkl
Status: SKIPPED (ALREADY EXISTS)
==================================================

=== SKIPPED (ALREADY EXISTS) - 2025-10-14 21:40:05 ===
File index: 008278
Input file: /data/retarget/locomotion/raw/AMASS_SMPLXG/Eyes_Japan_Dataset/aita/jump-11-warmup-aita_stageii.npz
Output file: ../robot/ik_based/pkl/008278.pkl
Status: SKIPPED (ALREADY EXISTS)
==================================================

=== SKIPPED (ALREADY EXISTS) - 2025-10-14 21:40:05 ===
File index: 008279
Input file: /data/retarget/locomotion/raw/AMASS_SMPLXG/Eyes_Japan_Dataset/aita/jump-13-matrix-aita_stageii.npz
Output file: ../robot/ik_based/pkl/008279.pkl
Status: SKIPPED (ALREADY EXISTS)
==================================================

=== ERROR LOG - 2025-10-14 21:40:07 ===
Input file: /data/retarget/locomotion/raw/AMASS_SMPLXG/Eyes_Japan_Dataset/aita/male_stagei.npz
Output file: ../robot/ik_based/pkl/008280.pkl
Robot type: unitree_g1
Processing time: 1.89 seconds
Error message: 'pose_body is not a file in the archive'
Error type: KeyError
==================================================

=== FILE FAILURE - 2025-10-14 21:40:08 ===
File index: 008280
File number: 111/9587
Input file: /data/retarget/locomotion/raw/AMASS_SMPLXG/Eyes_Japan_Dataset/aita/male_stagei.npz
Output file: ../robot/ik_based/pkl/008280.pkl
Processing time: 1.89 seconds
Total file time: 2.18 seconds
Status: FAILED
==================================================

=== SKIPPED (ALREADY EXISTS) - 2025-10-14 21:40:08 ===
File index: 008281
Input file: /data/retarget/locomotion/raw/AMASS_SMPLXG/Eyes_Japan_Dataset/aita/pain-01-headache-aita_stageii.npz
Output file: ../robot/ik_based/pkl/008281.pkl
Status: SKIPPED (ALREADY EXISTS)
==================================================

=== SKIPPED (ALREADY EXISTS) - 2025-10-14 21:40:08 ===
File index: 008282
Input file: /data/retarget/locomotion/raw/AMASS_SMPLXG/Eyes_Japan_Dataset/aita/pain-03-toothache-aita_stageii.npz
Output file: ../robot/ik_based/pkl/008282.pkl
Status: SKIPPED (ALREADY EXISTS)
==================================================

=== SKIPPED (ALREADY EXISTS) - 2025-10-14 21:40:08 ===
File index: 008283
Input file: /data/retarget/locomotion/raw/AMASS_SMPLXG/Eyes_Japan_Dataset/aita/pain-05-backache-aita_stageii.npz
Output file: ../robot/ik_based/pkl/008283.pkl
Status: SKIPPED (ALREADY EXISTS)
==================================================

=== SKIPPED (ALREADY EXISTS) - 2025-10-14 21:40:08 ===
File index: 008284
Input file: /data/retarget/locomotion/raw/AMASS_SMPLXG/Eyes_Japan_Dataset/aita/pose-01-normal-aita_stageii.npz
Output file: ../robot/ik_based/pkl/008284.pkl
Status: SKIPPED (ALREADY EXISTS)
==================================================

=== SKIPPED (ALREADY EXISTS) - 2025-10-14 21:40:08 ===
File index: 008285
Input file: /data/retarget/locomotion/raw/AMASS_SMPLXG/Eyes_Japan_Dataset/aita/pose-03-open_leg-aita_stageii.npz
Output file: ../robot/ik_based/pkl/008285.pkl
Status: SKIPPED (ALREADY EXISTS)
==================================================

=== SKIPPED (ALREADY EXISTS) - 2025-10-14 21:40:08 ===
File index: 008286
Input file: /data/retarget/locomotion/raw/AMASS_SMPLXG/Eyes_Japan_Dataset/aita/pose-04-drank-aita_stageii.npz
Output file: ../robot/ik_based/pkl/008286.pkl
Status: SKIPPED (ALREADY EXISTS)
==================================================

=== SKIPPED (ALREADY EXISTS) - 2025-10-14 21:40:08 ===
File index: 008287
Input file: /data/retarget/locomotion/raw/AMASS_SMPLXG/Eyes_Japan_Dataset/aita/pose-06-hangon-aita_stageii.npz
Output file: ../robot/ik_based/pkl/008287.pkl
Status: SKIPPED (ALREADY EXISTS)
==================================================

=== SKIPPED (ALREADY EXISTS) - 2025-10-14 21:40:08 ===
File index: 008288
Input file: /data/retarget/locomotion/raw/AMASS_SMPLXG/Eyes_Japan_Dataset/aita/pose-07-pray_cross-aita_stageii.npz
Output file: ../robot/ik_based/pkl/008288.pkl
Status: SKIPPED (ALREADY EXISTS)
==================================================

=== SKIPPED (ALREADY EXISTS) - 2025-10-14 21:40:08 ===
File index: 008289
Input file: /data/retarget/locomotion/raw/AMASS_SMPLXG/Eyes_Japan_Dataset/aita/pose-08-pray_buddhismintone-aita_stageii.npz
Output file: ../robot/ik_based/pkl/008289.pkl
Status: SKIPPED (ALREADY EXISTS)
==================================================

=== SKIPPED (ALREADY EXISTS) - 2025-10-14 21:40:08 ===
File index: 008290
Input file: /data/retarget/locomotion/raw/AMASS_SMPLXG/Eyes_Japan_Dataset/aita/pose-09-pray_buddhism-aita_stageii.npz
Output file: ../robot/ik_based/pkl/008290.pkl
Status: SKIPPED (ALREADY EXISTS)
==================================================

=== SKIPPED (ALREADY EXISTS) - 2025-10-14 21:40:08 ===
File index: 008291
Input file: /data/retarget/locomotion/raw/AMASS_SMPLXG/Eyes_Japan_Dataset/aita/pose-12-body_building-aita_stageii.npz
Output file: ../robot/ik_based/pkl/008291.pkl
Status: SKIPPED (ALREADY EXISTS)
==================================================

=== SKIPPED (ALREADY EXISTS) - 2025-10-14 21:40:08 ===
File index: 008292
Input file: /data/retarget/locomotion/raw/AMASS_SMPLXG/Eyes_Japan_Dataset/aita/pose-13-model-aita_stageii.npz
Output file: ../robot/ik_based/pkl/008292.pkl
Status: SKIPPED (ALREADY EXISTS)
==================================================

=== SKIPPED (ALREADY EXISTS) - 2025-10-14 21:40:08 ===
File index: 008293
Input file: /data/retarget/locomotion/raw/AMASS_SMPLXG/Eyes_Japan_Dataset/aita/pose-14-look_up-aita_stageii.npz
Output file: ../robot/ik_based/pkl/008293.pkl
Status: SKIPPED (ALREADY EXISTS)
==================================================

=== SKIPPED (ALREADY EXISTS) - 2025-10-14 21:40:08 ===
File index: 008294
Input file: /data/retarget/locomotion/raw/AMASS_SMPLXG/Eyes_Japan_Dataset/aita/pose-15-look_down-aita_stageii.npz
Output file: ../robot/ik_based/pkl/008294.pkl
Status: SKIPPED (ALREADY EXISTS)
==================================================

=== SKIPPED (ALREADY EXISTS) - 2025-10-14 21:40:08 ===
File index: 008295
Input file: /data/retarget/locomotion/raw/AMASS_SMPLXG/Eyes_Japan_Dataset/aita/pose-16-handstand-aita_stageii.npz
Output file: ../robot/ik_based/pkl/008295.pkl
Status: SKIPPED (ALREADY EXISTS)
==================================================

=== SKIPPED (ALREADY EXISTS) - 2025-10-14 21:40:08 ===
File index: 008296
Input file: /data/retarget/locomotion/raw/AMASS_SMPLXG/Eyes_Japan_Dataset/aita/pose-17-one_leg-aita_stageii.npz
Output file: ../robot/ik_based/pkl/008296.pkl
Status: SKIPPED (ALREADY EXISTS)
==================================================

=== SKIPPED (ALREADY EXISTS) - 2025-10-14 21:40:08 ===
File index: 008297
Input file: /data/retarget/locomotion/raw/AMASS_SMPLXG/Eyes_Japan_Dataset/aita/pose-18-applause-aita_stageii.npz
Output file: ../robot/ik_based/pkl/008297.pkl
Status: SKIPPED (ALREADY EXISTS)
==================================================

=== SKIPPED (ALREADY EXISTS) - 2025-10-14 21:40:08 ===
File index: 008298
Input file: /data/retarget/locomotion/raw/AMASS_SMPLXG/Eyes_Japan_Dataset/aita/pose-19-funny-aita_stageii.npz
Output file: ../robot/ik_based/pkl/008298.pkl
Status: SKIPPED (ALREADY EXISTS)
==================================================

=== SKIPPED (ALREADY EXISTS) - 2025-10-14 21:40:08 ===
File index: 008299
Input file: /data/retarget/locomotion/raw/AMASS_SMPLXG/Eyes_Japan_Dataset/aita/sitdown_standup-04-chair_elbow-aita_stageii.npz
Output file: ../robot/ik_based/pkl/008299.pkl
Status: SKIPPED (ALREADY EXISTS)
==================================================

=== SKIPPED (ALREADY EXISTS) - 2025-10-14 21:40:08 ===
File index: 008300
Input file: /data/retarget/locomotion/raw/AMASS_SMPLXG/Eyes_Japan_Dataset/aita/sitdown_standup-05-straight-aita_stageii.npz
Output file: ../robot/ik_based/pkl/008300.pkl
Status: SKIPPED (ALREADY EXISTS)
==================================================

=== SKIPPED (ALREADY EXISTS) - 2025-10-14 21:40:08 ===
File index: 008301
Input file: /data/retarget/locomotion/raw/AMASS_SMPLXG/Eyes_Japan_Dataset/aita/sitdown_standup-08-long_sitting-aita_stageii.npz
Output file: ../robot/ik_based/pkl/008301.pkl
Status: SKIPPED (ALREADY EXISTS)
==================================================

=== SKIPPED (ALREADY EXISTS) - 2025-10-14 21:40:08 ===
File index: 008302
Input file: /data/retarget/locomotion/raw/AMASS_SMPLXG/Eyes_Japan_Dataset/aita/sitdown_standup-09-squat_down-aita_stageii.npz
Output file: ../robot/ik_based/pkl/008302.pkl
Status: SKIPPED (ALREADY EXISTS)
==================================================

=== SKIPPED (ALREADY EXISTS) - 2025-10-14 21:40:08 ===
File index: 008303
Input file: /data/retarget/locomotion/raw/AMASS_SMPLXG/Eyes_Japan_Dataset/aita/sitdown_standup-10-observe-aita_stageii.npz
Output file: ../robot/ik_based/pkl/008303.pkl
Status: SKIPPED (ALREADY EXISTS)
==================================================

=== SKIPPED (ALREADY EXISTS) - 2025-10-14 21:40:08 ===
File index: 008304
Input file: /data/retarget/locomotion/raw/AMASS_SMPLXG/Eyes_Japan_Dataset/aita/sitdown_standup-11-one_knee_drawn_up-aita_stageii.npz
Output file: ../robot/ik_based/pkl/008304.pkl
Status: SKIPPED (ALREADY EXISTS)
==================================================

=== SKIPPED (ALREADY EXISTS) - 2025-10-14 21:40:08 ===
File index: 008305
Input file: /data/retarget/locomotion/raw/AMASS_SMPLXG/Eyes_Japan_Dataset/aita/sitdown_standup-14-hold_chair-aita_stageii.npz
Output file: ../robot/ik_based/pkl/008305.pkl
Status: SKIPPED (ALREADY EXISTS)
==================================================

=== SKIPPED (ALREADY EXISTS) - 2025-10-14 21:40:08 ===
File index: 008306
Input file: /data/retarget/locomotion/raw/AMASS_SMPLXG/Eyes_Japan_Dataset/aita/sitdown_standup-15-move_chair-aita_stageii.npz
Output file: ../robot/ik_based/pkl/008306.pkl
Status: SKIPPED (ALREADY EXISTS)
==================================================

=== SKIPPED (ALREADY EXISTS) - 2025-10-14 21:40:08 ===
File index: 008307
Input file: /data/retarget/locomotion/raw/AMASS_SMPLXG/Eyes_Japan_Dataset/aita/sitdown_standup-16-reseat-aita_stageii.npz
Output file: ../robot/ik_based/pkl/008307.pkl
Status: SKIPPED (ALREADY EXISTS)
==================================================

=== SKIPPED (ALREADY EXISTS) - 2025-10-14 21:40:08 ===
File index: 008308
Input file: /data/retarget/locomotion/raw/AMASS_SMPLXG/Eyes_Japan_Dataset/aita/throw_toss-02-side-aita_stageii.npz
Output file: ../robot/ik_based/pkl/008308.pkl
Status: SKIPPED (ALREADY EXISTS)
==================================================

=== SKIPPED (ALREADY EXISTS) - 2025-10-14 21:40:08 ===
File index: 008309
Input file: /data/retarget/locomotion/raw/AMASS_SMPLXG/Eyes_Japan_Dataset/aita/throw_toss-03-under-aita_stageii.npz
Output file: ../robot/ik_based/pkl/008309.pkl
Status: SKIPPED (ALREADY EXISTS)
==================================================

=== SKIPPED (ALREADY EXISTS) - 2025-10-14 21:40:08 ===
File index: 008310
Input file: /data/retarget/locomotion/raw/AMASS_SMPLXG/Eyes_Japan_Dataset/aita/throw_toss-04-both_hands_over_light-aita_stageii.npz
Output file: ../robot/ik_based/pkl/008310.pkl
Status: SKIPPED (ALREADY EXISTS)
==================================================

=== SKIPPED (ALREADY EXISTS) - 2025-10-14 21:40:08 ===
File index: 008311
Input file: /data/retarget/locomotion/raw/AMASS_SMPLXG/Eyes_Japan_Dataset/aita/throw_toss-05-both_hands_over_heavy-aita_stageii.npz
Output file: ../robot/ik_based/pkl/008311.pkl
Status: SKIPPED (ALREADY EXISTS)
==================================================

=== SKIPPED (ALREADY EXISTS) - 2025-10-14 21:40:08 ===
File index: 008312
Input file: /data/retarget/locomotion/raw/AMASS_SMPLXG/Eyes_Japan_Dataset/aita/throw_toss-11-disc-aita_stageii.npz
Output file: ../robot/ik_based/pkl/008312.pkl
Status: SKIPPED (ALREADY EXISTS)
==================================================

=== SKIPPED (ALREADY EXISTS) - 2025-10-14 21:40:08 ===
File index: 008313
Input file: /data/retarget/locomotion/raw/AMASS_SMPLXG/Eyes_Japan_Dataset/aita/throw_toss-12-dart-aita_stageii.npz
Output file: ../robot/ik_based/pkl/008313.pkl
Status: SKIPPED (ALREADY EXISTS)
==================================================

=== SKIPPED (ALREADY EXISTS) - 2025-10-14 21:40:08 ===
File index: 008314
Input file: /data/retarget/locomotion/raw/AMASS_SMPLXG/Eyes_Japan_Dataset/aita/throw_toss-15-pass_to_left_light-aita_stageii.npz
Output file: ../robot/ik_based/pkl/008314.pkl
Status: SKIPPED (ALREADY EXISTS)
==================================================

=== SKIPPED (ALREADY EXISTS) - 2025-10-14 21:40:08 ===
File index: 008315
Input file: /data/retarget/locomotion/raw/AMASS_SMPLXG/Eyes_Japan_Dataset/aita/throw_toss-19-pass_to_front_light-aita_stageii.npz
Output file: ../robot/ik_based/pkl/008315.pkl
Status: SKIPPED (ALREADY EXISTS)
==================================================

=== SKIPPED (ALREADY EXISTS) - 2025-10-14 21:40:08 ===
File index: 008316
Input file: /data/retarget/locomotion/raw/AMASS_SMPLXG/Eyes_Japan_Dataset/aita/throw_toss-20-pass_to_front_heavy-aita_stageii.npz
Output file: ../robot/ik_based/pkl/008316.pkl
Status: SKIPPED (ALREADY EXISTS)
==================================================

=== SKIPPED (ALREADY EXISTS) - 2025-10-14 21:40:08 ===
File index: 008317
Input file: /data/retarget/locomotion/raw/AMASS_SMPLXG/Eyes_Japan_Dataset/aita/turn-01-call-aita_stageii.npz
Output file: ../robot/ik_based/pkl/008317.pkl
Status: SKIPPED (ALREADY EXISTS)
==================================================

=== SKIPPED (ALREADY EXISTS) - 2025-10-14 21:40:08 ===
File index: 008318
Input file: /data/retarget/locomotion/raw/AMASS_SMPLXG/Eyes_Japan_Dataset/aita/turn-02-look_around-aita_stageii.npz
Output file: ../robot/ik_based/pkl/008318.pkl
Status: SKIPPED (ALREADY EXISTS)
==================================================

=== SKIPPED (ALREADY EXISTS) - 2025-10-14 21:40:08 ===
File index: 008319
Input file: /data/retarget/locomotion/raw/AMASS_SMPLXG/Eyes_Japan_Dataset/aita/turn-03-look_at-aita_stageii.npz
Output file: ../robot/ik_based/pkl/008319.pkl
Status: SKIPPED (ALREADY EXISTS)
==================================================

=== SKIPPED (ALREADY EXISTS) - 2025-10-14 21:40:08 ===
File index: 008320
Input file: /data/retarget/locomotion/raw/AMASS_SMPLXG/Eyes_Japan_Dataset/aita/turn-05-turn-aita_stageii.npz
Output file: ../robot/ik_based/pkl/008320.pkl
Status: SKIPPED (ALREADY EXISTS)
==================================================

=== SKIPPED (ALREADY EXISTS) - 2025-10-14 21:40:08 ===
File index: 008321
Input file: /data/retarget/locomotion/raw/AMASS_SMPLXG/Eyes_Japan_Dataset/aita/walk-01-normal-aita_stageii.npz
Output file: ../robot/ik_based/pkl/008321.pkl
Status: SKIPPED (ALREADY EXISTS)
==================================================

=== SKIPPED (ALREADY EXISTS) - 2025-10-14 21:40:08 ===
File index: 008322
Input file: /data/retarget/locomotion/raw/AMASS_SMPLXG/Eyes_Japan_Dataset/aita/walk-02-drank-aita_stageii.npz
Output file: ../robot/ik_based/pkl/008322.pkl
Status: SKIPPED (ALREADY EXISTS)
==================================================

=== SKIPPED (ALREADY EXISTS) - 2025-10-14 21:40:08 ===
File index: 008323
Input file: /data/retarget/locomotion/raw/AMASS_SMPLXG/Eyes_Japan_Dataset/aita/walk-03-sneak-aita_stageii.npz
Output file: ../robot/ik_based/pkl/008323.pkl
Status: SKIPPED (ALREADY EXISTS)
==================================================

=== SKIPPED (ALREADY EXISTS) - 2025-10-14 21:40:08 ===
File index: 008324
Input file: /data/retarget/locomotion/raw/AMASS_SMPLXG/Eyes_Japan_Dataset/aita/walk-04-fast-aita_stageii.npz
Output file: ../robot/ik_based/pkl/008324.pkl
Status: SKIPPED (ALREADY EXISTS)
==================================================

=== SKIPPED (ALREADY EXISTS) - 2025-10-14 21:40:08 ===
File index: 008325
Input file: /data/retarget/locomotion/raw/AMASS_SMPLXG/Eyes_Japan_Dataset/aita/walk-05-backward-aita_stageii.npz
Output file: ../robot/ik_based/pkl/008325.pkl
Status: SKIPPED (ALREADY EXISTS)
==================================================

=== SKIPPED (ALREADY EXISTS) - 2025-10-14 21:40:08 ===
File index: 008326
Input file: /data/retarget/locomotion/raw/AMASS_SMPLXG/Eyes_Japan_Dataset/aita/walk-06-catwalk-aita_stageii.npz
Output file: ../robot/ik_based/pkl/008326.pkl
Status: SKIPPED (ALREADY EXISTS)
==================================================

=== SKIPPED (ALREADY EXISTS) - 2025-10-14 21:40:08 ===
File index: 008327
Input file: /data/retarget/locomotion/raw/AMASS_SMPLXG/Eyes_Japan_Dataset/aita/walk-07-moonwalk-aita_stageii.npz
Output file: ../robot/ik_based/pkl/008327.pkl
Status: SKIPPED (ALREADY EXISTS)
==================================================

=== SKIPPED (ALREADY EXISTS) - 2025-10-14 21:40:08 ===
File index: 008328
Input file: /data/retarget/locomotion/raw/AMASS_SMPLXG/Eyes_Japan_Dataset/aita/walk-08-lookfor-aita_stageii.npz
Output file: ../robot/ik_based/pkl/008328.pkl
Status: SKIPPED (ALREADY EXISTS)
==================================================

=== SKIPPED (ALREADY EXISTS) - 2025-10-14 21:40:08 ===
File index: 008329
Input file: /data/retarget/locomotion/raw/AMASS_SMPLXG/Eyes_Japan_Dataset/aita/walk-09-handbag-aita_stageii.npz
Output file: ../robot/ik_based/pkl/008329.pkl
Status: SKIPPED (ALREADY EXISTS)
==================================================

=== SKIPPED (ALREADY EXISTS) - 2025-10-14 21:40:08 ===
File index: 008330
Input file: /data/retarget/locomotion/raw/AMASS_SMPLXG/Eyes_Japan_Dataset/aita/walk-11-baggage_on_the_head-aita_stageii.npz
Output file: ../robot/ik_based/pkl/008330.pkl
Status: SKIPPED (ALREADY EXISTS)
==================================================

=== SKIPPED (ALREADY EXISTS) - 2025-10-14 21:40:08 ===
File index: 008331
Input file: /data/retarget/locomotion/raw/AMASS_SMPLXG/Eyes_Japan_Dataset/aita/walk-14-backpack-aita_stageii.npz
Output file: ../robot/ik_based/pkl/008331.pkl
Status: SKIPPED (ALREADY EXISTS)
==================================================

=== SKIPPED (ALREADY EXISTS) - 2025-10-14 21:40:08 ===
File index: 008332
Input file: /data/retarget/locomotion/raw/AMASS_SMPLXG/Eyes_Japan_Dataset/aita/walk-21-one_leg-aita_stageii.npz
Output file: ../robot/ik_based/pkl/008332.pkl
Status: SKIPPED (ALREADY EXISTS)
==================================================

=== SKIPPED (ALREADY EXISTS) - 2025-10-14 21:40:08 ===
File index: 008333
Input file: /data/retarget/locomotion/raw/AMASS_SMPLXG/Eyes_Japan_Dataset/aita/walk-22-look_around-aita_stageii.npz
Output file: ../robot/ik_based/pkl/008333.pkl
Status: SKIPPED (ALREADY EXISTS)
==================================================

=== SKIPPED (ALREADY EXISTS) - 2025-10-14 21:40:08 ===
File index: 008334
Input file: /data/retarget/locomotion/raw/AMASS_SMPLXG/Eyes_Japan_Dataset/aita/walk-23-shuffle_oneleg-aita_stageii.npz
Output file: ../robot/ik_based/pkl/008334.pkl
Status: SKIPPED (ALREADY EXISTS)
==================================================

=== ERROR LOG - 2025-10-14 21:40:10 ===
Input file: /data/retarget/locomotion/raw/AMASS_SMPLXG/Eyes_Japan_Dataset/frederic/male_stagei.npz
Output file: ../robot/ik_based/pkl/008335.pkl
Robot type: unitree_g1
Processing time: 2.38 seconds
Error message: 'pose_body is not a file in the archive'
Error type: KeyError
==================================================

=== FILE FAILURE - 2025-10-14 21:40:10 ===
File index: 008335
File number: 166/9587
Input file: /data/retarget/locomotion/raw/AMASS_SMPLXG/Eyes_Japan_Dataset/frederic/male_stagei.npz
Output file: ../robot/ik_based/pkl/008335.pkl
Processing time: 2.38 seconds
Total file time: 2.57 seconds
Status: FAILED
==================================================

=== SKIPPED (ALREADY EXISTS) - 2025-10-14 21:40:10 ===
File index: 008336
Input file: /data/retarget/locomotion/raw/AMASS_SMPLXG/Eyes_Japan_Dataset/frederic/walk-04-fast-frederic_stageii.npz
Output file: ../robot/ik_based/pkl/008336.pkl
Status: SKIPPED (ALREADY EXISTS)
==================================================

=== SKIPPED (ALREADY EXISTS) - 2025-10-14 21:40:10 ===
File index: 008337
Input file: /data/retarget/locomotion/raw/AMASS_SMPLXG/Eyes_Japan_Dataset/frederic/walk-06-catwalk-frederic_stageii.npz
Output file: ../robot/ik_based/pkl/008337.pkl
Status: SKIPPED (ALREADY EXISTS)
==================================================

=== SKIPPED (ALREADY EXISTS) - 2025-10-14 21:40:10 ===
File index: 008338
Input file: /data/retarget/locomotion/raw/AMASS_SMPLXG/Eyes_Japan_Dataset/hamada/accident-01-dodge-hamada_stageii.npz
Output file: ../robot/ik_based/pkl/008338.pkl
Status: SKIPPED (ALREADY EXISTS)
==================================================

=== SKIPPED (ALREADY EXISTS) - 2025-10-14 21:40:10 ===
File index: 008339
Input file: /data/retarget/locomotion/raw/AMASS_SMPLXG/Eyes_Japan_Dataset/hamada/accident-02-dodge_fast-hamada_stageii.npz
Output file: ../robot/ik_based/pkl/008339.pkl
Status: SKIPPED (ALREADY EXISTS)
==================================================

=== SKIPPED (ALREADY EXISTS) - 2025-10-14 21:40:10 ===
File index: 008340
Input file: /data/retarget/locomotion/raw/AMASS_SMPLXG/Eyes_Japan_Dataset/hamada/accident-03-damage_head-hamada_stageii.npz
Output file: ../robot/ik_based/pkl/008340.pkl
Status: SKIPPED (ALREADY EXISTS)
==================================================

=== SKIPPED (ALREADY EXISTS) - 2025-10-14 21:40:10 ===
File index: 008341
Input file: /data/retarget/locomotion/raw/AMASS_SMPLXG/Eyes_Japan_Dataset/hamada/accident-04-damage_right_leg-hamada_stageii.npz
Output file: ../robot/ik_based/pkl/008341.pkl
Status: SKIPPED (ALREADY EXISTS)
==================================================

=== SKIPPED (ALREADY EXISTS) - 2025-10-14 21:40:10 ===
File index: 008342
Input file: /data/retarget/locomotion/raw/AMASS_SMPLXG/Eyes_Japan_Dataset/hamada/accident-05-damage_right_arm-hamada_stageii.npz
Output file: ../robot/ik_based/pkl/008342.pkl
Status: SKIPPED (ALREADY EXISTS)
==================================================

=== SKIPPED (ALREADY EXISTS) - 2025-10-14 21:40:10 ===
File index: 008343
Input file: /data/retarget/locomotion/raw/AMASS_SMPLXG/Eyes_Japan_Dataset/hamada/accident-06-damage_left_leg-hamada_stageii.npz
Output file: ../robot/ik_based/pkl/008343.pkl
Status: SKIPPED (ALREADY EXISTS)
==================================================

=== SKIPPED (ALREADY EXISTS) - 2025-10-14 21:40:10 ===
File index: 008344
Input file: /data/retarget/locomotion/raw/AMASS_SMPLXG/Eyes_Japan_Dataset/hamada/accident-07-damage_left_arm-hamada_stageii.npz
Output file: ../robot/ik_based/pkl/008344.pkl
Status: SKIPPED (ALREADY EXISTS)
==================================================

=== SKIPPED (ALREADY EXISTS) - 2025-10-14 21:40:10 ===
File index: 008345
Input file: /data/retarget/locomotion/raw/AMASS_SMPLXG/Eyes_Japan_Dataset/hamada/accident-08-damage_rightfoot-hamada_stageii.npz
Output file: ../robot/ik_based/pkl/008345.pkl
Status: SKIPPED (ALREADY EXISTS)
==================================================

=== SKIPPED (ALREADY EXISTS) - 2025-10-14 21:40:10 ===
File index: 008346
Input file: /data/retarget/locomotion/raw/AMASS_SMPLXG/Eyes_Japan_Dataset/hamada/accident-09-damage_leftfoot-hamada_stageii.npz
Output file: ../robot/ik_based/pkl/008346.pkl
Status: SKIPPED (ALREADY EXISTS)
==================================================

=== SKIPPED (ALREADY EXISTS) - 2025-10-14 21:40:10 ===
File index: 008347
Input file: /data/retarget/locomotion/raw/AMASS_SMPLXG/Eyes_Japan_Dataset/hamada/accident-10-spasm-hamada_stageii.npz
Output file: ../robot/ik_based/pkl/008347.pkl
Status: SKIPPED (ALREADY EXISTS)
==================================================

=== SKIPPED (ALREADY EXISTS) - 2025-10-14 21:40:10 ===
File index: 008348
Input file: /data/retarget/locomotion/raw/AMASS_SMPLXG/Eyes_Japan_Dataset/hamada/accident-11-fall_down-hamada_stageii.npz
Output file: ../robot/ik_based/pkl/008348.pkl
Status: SKIPPED (ALREADY EXISTS)
==================================================

=== SKIPPED (ALREADY EXISTS) - 2025-10-14 21:40:10 ===
File index: 008349
Input file: /data/retarget/locomotion/raw/AMASS_SMPLXG/Eyes_Japan_Dataset/hamada/accident-12-twist_foot-hamada_stageii.npz
Output file: ../robot/ik_based/pkl/008349.pkl
Status: SKIPPED (ALREADY EXISTS)
==================================================

=== SKIPPED (ALREADY EXISTS) - 2025-10-14 21:40:10 ===
File index: 008350
Input file: /data/retarget/locomotion/raw/AMASS_SMPLXG/Eyes_Japan_Dataset/hamada/accident-13-damage_back-hamada_stageii.npz
Output file: ../robot/ik_based/pkl/008350.pkl
Status: SKIPPED (ALREADY EXISTS)
==================================================

=== SKIPPED (ALREADY EXISTS) - 2025-10-14 21:40:10 ===
File index: 008351
Input file: /data/retarget/locomotion/raw/AMASS_SMPLXG/Eyes_Japan_Dataset/hamada/gesture_etc-01-set_1-hamada_stageii.npz
Output file: ../robot/ik_based/pkl/008351.pkl
Status: SKIPPED (ALREADY EXISTS)
==================================================

=== SKIPPED (ALREADY EXISTS) - 2025-10-14 21:40:10 ===
File index: 008352
Input file: /data/retarget/locomotion/raw/AMASS_SMPLXG/Eyes_Japan_Dataset/hamada/gesture_etc-02-set_2-hamada_stageii.npz
Output file: ../robot/ik_based/pkl/008352.pkl
Status: SKIPPED (ALREADY EXISTS)
==================================================

=== SKIPPED (ALREADY EXISTS) - 2025-10-14 21:40:10 ===
File index: 008353
Input file: /data/retarget/locomotion/raw/AMASS_SMPLXG/Eyes_Japan_Dataset/hamada/gesture_etc-03-set_3-hamada_stageii.npz
Output file: ../robot/ik_based/pkl/008353.pkl
Status: SKIPPED (ALREADY EXISTS)
==================================================

=== SKIPPED (ALREADY EXISTS) - 2025-10-14 21:40:10 ===
File index: 008354
Input file: /data/retarget/locomotion/raw/AMASS_SMPLXG/Eyes_Japan_Dataset/hamada/gesture_etc-04-set_4-hamada_stageii.npz
Output file: ../robot/ik_based/pkl/008354.pkl
Status: SKIPPED (ALREADY EXISTS)
==================================================

=== SKIPPED (ALREADY EXISTS) - 2025-10-14 21:40:10 ===
File index: 008355
Input file: /data/retarget/locomotion/raw/AMASS_SMPLXG/Eyes_Japan_Dataset/hamada/gesture_etc-05-touch_nose-hamada_stageii.npz
Output file: ../robot/ik_based/pkl/008355.pkl
Status: SKIPPED (ALREADY EXISTS)
==================================================

=== SKIPPED (ALREADY EXISTS) - 2025-10-14 21:40:10 ===
File index: 008356
Input file: /data/retarget/locomotion/raw/AMASS_SMPLXG/Eyes_Japan_Dataset/hamada/gesture_etc-06-jiggle_knee-hamada_stageii.npz
Output file: ../robot/ik_based/pkl/008356.pkl
Status: SKIPPED (ALREADY EXISTS)
==================================================

=== SKIPPED (ALREADY EXISTS) - 2025-10-14 21:40:10 ===
File index: 008357
Input file: /data/retarget/locomotion/raw/AMASS_SMPLXG/Eyes_Japan_Dataset/hamada/gesture_etc-07-over_stretch-hamada_stageii.npz
Output file: ../robot/ik_based/pkl/008357.pkl
Status: SKIPPED (ALREADY EXISTS)
==================================================

=== SKIPPED (ALREADY EXISTS) - 2025-10-14 21:40:10 ===
File index: 008358
Input file: /data/retarget/locomotion/raw/AMASS_SMPLXG/Eyes_Japan_Dataset/hamada/gesture_etc-09-scratch-hamada_stageii.npz
Output file: ../robot/ik_based/pkl/008358.pkl
Status: SKIPPED (ALREADY EXISTS)
==================================================

=== SKIPPED (ALREADY EXISTS) - 2025-10-14 21:40:10 ===
File index: 008359
Input file: /data/retarget/locomotion/raw/AMASS_SMPLXG/Eyes_Japan_Dataset/hamada/gesture_etc-14-apologize-hamada_stageii.npz
Output file: ../robot/ik_based/pkl/008359.pkl
Status: SKIPPED (ALREADY EXISTS)
==================================================

=== SKIPPED (ALREADY EXISTS) - 2025-10-14 21:40:10 ===
File index: 008360
Input file: /data/retarget/locomotion/raw/AMASS_SMPLXG/Eyes_Japan_Dataset/hamada/gesture_etc-15-whip_-hamada_stageii.npz
Output file: ../robot/ik_based/pkl/008360.pkl
Status: SKIPPED (ALREADY EXISTS)
==================================================

=== SKIPPED (ALREADY EXISTS) - 2025-10-14 21:40:10 ===
File index: 008361
Input file: /data/retarget/locomotion/raw/AMASS_SMPLXG/Eyes_Japan_Dataset/hamada/gesture_etc-16-dryer-hamada_stageii.npz
Output file: ../robot/ik_based/pkl/008361.pkl
Status: SKIPPED (ALREADY EXISTS)
==================================================

=== SKIPPED (ALREADY EXISTS) - 2025-10-14 21:40:10 ===
File index: 008362
Input file: /data/retarget/locomotion/raw/AMASS_SMPLXG/Eyes_Japan_Dataset/hamada/gesture_etc-17-drink-hamada_stageii.npz
Output file: ../robot/ik_based/pkl/008362.pkl
Status: SKIPPED (ALREADY EXISTS)
==================================================

=== SKIPPED (ALREADY EXISTS) - 2025-10-14 21:40:10 ===
File index: 008363
Input file: /data/retarget/locomotion/raw/AMASS_SMPLXG/Eyes_Japan_Dataset/hamada/gesture_etc-18-eat-hamada_stageii.npz
Output file: ../robot/ik_based/pkl/008363.pkl
Status: SKIPPED (ALREADY EXISTS)
==================================================

=== SKIPPED (ALREADY EXISTS) - 2025-10-14 21:40:10 ===
File index: 008364
Input file: /data/retarget/locomotion/raw/AMASS_SMPLXG/Eyes_Japan_Dataset/hamada/gesture_etc-21-clapping-hamada_stageii.npz
Output file: ../robot/ik_based/pkl/008364.pkl
Status: SKIPPED (ALREADY EXISTS)
==================================================

=== SKIPPED (ALREADY EXISTS) - 2025-10-14 21:40:10 ===
File index: 008365
Input file: /data/retarget/locomotion/raw/AMASS_SMPLXG/Eyes_Japan_Dataset/hamada/gesture_etc-22-mobile_receive-hamada_stageii.npz
Output file: ../robot/ik_based/pkl/008365.pkl
Status: SKIPPED (ALREADY EXISTS)
==================================================

=== SKIPPED (ALREADY EXISTS) - 2025-10-14 21:40:10 ===
File index: 008366
Input file: /data/retarget/locomotion/raw/AMASS_SMPLXG/Eyes_Japan_Dataset/hamada/gesture_etc-23-mobile_call-hamada_stageii.npz
Output file: ../robot/ik_based/pkl/008366.pkl
Status: SKIPPED (ALREADY EXISTS)
==================================================

=== SKIPPED (ALREADY EXISTS) - 2025-10-14 21:40:10 ===
File index: 008367
Input file: /data/retarget/locomotion/raw/AMASS_SMPLXG/Eyes_Japan_Dataset/hamada/gesture_etc-25-magic-hamada_stageii.npz
Output file: ../robot/ik_based/pkl/008367.pkl
Status: SKIPPED (ALREADY EXISTS)
==================================================

=== SKIPPED (ALREADY EXISTS) - 2025-10-14 21:40:10 ===
File index: 008368
Input file: /data/retarget/locomotion/raw/AMASS_SMPLXG/Eyes_Japan_Dataset/hamada/gesture_etc-26-hit_mosquito-hamada_stageii.npz
Output file: ../robot/ik_based/pkl/008368.pkl
Status: SKIPPED (ALREADY EXISTS)
==================================================

=== SKIPPED (ALREADY EXISTS) - 2025-10-14 21:40:10 ===
File index: 008369
Input file: /data/retarget/locomotion/raw/AMASS_SMPLXG/Eyes_Japan_Dataset/hamada/gesture_etc-27-hit_cockroach-hamada_stageii.npz
Output file: ../robot/ik_based/pkl/008369.pkl
Status: SKIPPED (ALREADY EXISTS)
==================================================

=== SKIPPED (ALREADY EXISTS) - 2025-10-14 21:40:10 ===
File index: 008370
Input file: /data/retarget/locomotion/raw/AMASS_SMPLXG/Eyes_Japan_Dataset/hamada/gesture_etc-29-pantomime-hamada_stageii.npz
Output file: ../robot/ik_based/pkl/008370.pkl
Status: SKIPPED (ALREADY EXISTS)
==================================================

=== SKIPPED (ALREADY EXISTS) - 2025-10-14 21:40:10 ===
File index: 008371
Input file: /data/retarget/locomotion/raw/AMASS_SMPLXG/Eyes_Japan_Dataset/hamada/gesture_etc-30-fxxk-hamada_stageii.npz
Output file: ../robot/ik_based/pkl/008371.pkl
Status: SKIPPED (ALREADY EXISTS)
==================================================

=== SKIPPED (ALREADY EXISTS) - 2025-10-14 21:40:10 ===
File index: 008372
Input file: /data/retarget/locomotion/raw/AMASS_SMPLXG/Eyes_Japan_Dataset/hamada/gesture_etc-31-ok-hamada_stageii.npz
Output file: ../robot/ik_based/pkl/008372.pkl
Status: SKIPPED (ALREADY EXISTS)
==================================================

=== SKIPPED (ALREADY EXISTS) - 2025-10-14 21:40:10 ===
File index: 008373
Input file: /data/retarget/locomotion/raw/AMASS_SMPLXG/Eyes_Japan_Dataset/hamada/gesture_etc-32-no-hamada_stageii.npz
Output file: ../robot/ik_based/pkl/008373.pkl
Status: SKIPPED (ALREADY EXISTS)
==================================================

=== SKIPPED (ALREADY EXISTS) - 2025-10-14 21:40:10 ===
File index: 008374
Input file: /data/retarget/locomotion/raw/AMASS_SMPLXG/Eyes_Japan_Dataset/hamada/gesture_etc-33-watch_here-hamada_stageii.npz
Output file: ../robot/ik_based/pkl/008374.pkl
Status: SKIPPED (ALREADY EXISTS)
==================================================

=== SKIPPED (ALREADY EXISTS) - 2025-10-14 21:40:10 ===
File index: 008375
Input file: /data/retarget/locomotion/raw/AMASS_SMPLXG/Eyes_Japan_Dataset/hamada/gesture_etc-34-peace-hamada_stageii.npz
Output file: ../robot/ik_based/pkl/008375.pkl
Status: SKIPPED (ALREADY EXISTS)
==================================================

=== SKIPPED (ALREADY EXISTS) - 2025-10-14 21:40:10 ===
File index: 008376
Input file: /data/retarget/locomotion/raw/AMASS_SMPLXG/Eyes_Japan_Dataset/hamada/gesture_etc-35-west_side-hamada_stageii.npz
Output file: ../robot/ik_based/pkl/008376.pkl
Status: SKIPPED (ALREADY EXISTS)
==================================================

=== SKIPPED (ALREADY EXISTS) - 2025-10-14 21:40:10 ===
File index: 008377
Input file: /data/retarget/locomotion/raw/AMASS_SMPLXG/Eyes_Japan_Dataset/hamada/gesture_etc-36-shame-hamada_stageii.npz
Output file: ../robot/ik_based/pkl/008377.pkl
Status: SKIPPED (ALREADY EXISTS)
==================================================

=== SKIPPED (ALREADY EXISTS) - 2025-10-14 21:40:10 ===
File index: 008378
Input file: /data/retarget/locomotion/raw/AMASS_SMPLXG/Eyes_Japan_Dataset/hamada/gesture_etc-37-gay-hamada_stageii.npz
Output file: ../robot/ik_based/pkl/008378.pkl
Status: SKIPPED (ALREADY EXISTS)
==================================================

=== SKIPPED (ALREADY EXISTS) - 2025-10-14 21:40:10 ===
File index: 008379
Input file: /data/retarget/locomotion/raw/AMASS_SMPLXG/Eyes_Japan_Dataset/hamada/gesture_etc-38-hand_language-hamada_stageii.npz
Output file: ../robot/ik_based/pkl/008379.pkl
Status: SKIPPED (ALREADY EXISTS)
==================================================

=== SKIPPED (ALREADY EXISTS) - 2025-10-14 21:40:10 ===
File index: 008380
Input file: /data/retarget/locomotion/raw/AMASS_SMPLXG/Eyes_Japan_Dataset/hamada/gesture_etc-39-giant_baba-hamada_stageii.npz
Output file: ../robot/ik_based/pkl/008380.pkl
Status: SKIPPED (ALREADY EXISTS)
==================================================

=== SKIPPED (ALREADY EXISTS) - 2025-10-14 21:40:10 ===
File index: 008381
Input file: /data/retarget/locomotion/raw/AMASS_SMPLXG/Eyes_Japan_Dataset/hamada/gesture_etc-40-head_banging-hamada_stageii.npz
Output file: ../robot/ik_based/pkl/008381.pkl
Status: SKIPPED (ALREADY EXISTS)
==================================================

=== SKIPPED (ALREADY EXISTS) - 2025-10-14 21:40:10 ===
File index: 008382
Input file: /data/retarget/locomotion/raw/AMASS_SMPLXG/Eyes_Japan_Dataset/hamada/gesture_etc-41-mosh-hamada_stageii.npz
Output file: ../robot/ik_based/pkl/008382.pkl
Status: SKIPPED (ALREADY EXISTS)
==================================================

=== SKIPPED (ALREADY EXISTS) - 2025-10-14 21:40:10 ===
File index: 008383
Input file: /data/retarget/locomotion/raw/AMASS_SMPLXG/Eyes_Japan_Dataset/hamada/gesture_etc-42-hung_over-hamada_stageii.npz
Output file: ../robot/ik_based/pkl/008383.pkl
Status: SKIPPED (ALREADY EXISTS)
==================================================

=== SKIPPED (ALREADY EXISTS) - 2025-10-14 21:40:10 ===
File index: 008384
Input file: /data/retarget/locomotion/raw/AMASS_SMPLXG/Eyes_Japan_Dataset/hamada/gesture_etc-43-brush_teeth-hamada_stageii.npz
Output file: ../robot/ik_based/pkl/008384.pkl
Status: SKIPPED (ALREADY EXISTS)
==================================================

=== SKIPPED (ALREADY EXISTS) - 2025-10-14 21:40:10 ===
File index: 008385
Input file: /data/retarget/locomotion/raw/AMASS_SMPLXG/Eyes_Japan_Dataset/hamada/gesture_etc-44-wash_hands-hamada_stageii.npz
Output file: ../robot/ik_based/pkl/008385.pkl
Status: SKIPPED (ALREADY EXISTS)
==================================================

=== SKIPPED (ALREADY EXISTS) - 2025-10-14 21:40:10 ===
File index: 008386
Input file: /data/retarget/locomotion/raw/AMASS_SMPLXG/Eyes_Japan_Dataset/hamada/gesture_etc-45-feel_dizzy_-hamada_stageii.npz
Output file: ../robot/ik_based/pkl/008386.pkl
Status: SKIPPED (ALREADY EXISTS)
==================================================

=== SKIPPED (ALREADY EXISTS) - 2025-10-14 21:40:10 ===
File index: 008387
Input file: /data/retarget/locomotion/raw/AMASS_SMPLXG/Eyes_Japan_Dataset/hamada/gesture_etc-46-vomit_of_blood-hamada_stageii.npz
Output file: ../robot/ik_based/pkl/008387.pkl
Status: SKIPPED (ALREADY EXISTS)
==================================================

=== SKIPPED (ALREADY EXISTS) - 2025-10-14 21:40:10 ===
File index: 008388
Input file: /data/retarget/locomotion/raw/AMASS_SMPLXG/Eyes_Japan_Dataset/hamada/gesture_etc-47-big_drum-hamada_stageii.npz
Output file: ../robot/ik_based/pkl/008388.pkl
Status: SKIPPED (ALREADY EXISTS)
==================================================

=== SKIPPED (ALREADY EXISTS) - 2025-10-14 21:40:10 ===
File index: 008389
Input file: /data/retarget/locomotion/raw/AMASS_SMPLXG/Eyes_Japan_Dataset/hamada/gesture_etc-48-medium_drum-hamada_stageii.npz
Output file: ../robot/ik_based/pkl/008389.pkl
Status: SKIPPED (ALREADY EXISTS)
==================================================

=== SKIPPED (ALREADY EXISTS) - 2025-10-14 21:40:10 ===
File index: 008390
Input file: /data/retarget/locomotion/raw/AMASS_SMPLXG/Eyes_Japan_Dataset/hamada/gesture_etc-49-taiko_under-hamada_stageii.npz
Output file: ../robot/ik_based/pkl/008390.pkl
Status: SKIPPED (ALREADY EXISTS)
==================================================

=== SKIPPED (ALREADY EXISTS) - 2025-10-14 21:40:10 ===
File index: 008391
Input file: /data/retarget/locomotion/raw/AMASS_SMPLXG/Eyes_Japan_Dataset/hamada/gesture_etc-50-syuriken-hamada_stageii.npz
Output file: ../robot/ik_based/pkl/008391.pkl
Status: SKIPPED (ALREADY EXISTS)
==================================================

=== SKIPPED (ALREADY EXISTS) - 2025-10-14 21:40:10 ===
File index: 008392
Input file: /data/retarget/locomotion/raw/AMASS_SMPLXG/Eyes_Japan_Dataset/hamada/gesture_etc-51-cramp-hamada_stageii.npz
Output file: ../robot/ik_based/pkl/008392.pkl
Status: SKIPPED (ALREADY EXISTS)
==================================================

=== SKIPPED (ALREADY EXISTS) - 2025-10-14 21:40:11 ===
File index: 008393
Input file: /data/retarget/locomotion/raw/AMASS_SMPLXG/Eyes_Japan_Dataset/hamada/greeting-01-hello-hamada_stageii.npz
Output file: ../robot/ik_based/pkl/008393.pkl
Status: SKIPPED (ALREADY EXISTS)
==================================================

=== SKIPPED (ALREADY EXISTS) - 2025-10-14 21:40:11 ===
File index: 008394
Input file: /data/retarget/locomotion/raw/AMASS_SMPLXG/Eyes_Japan_Dataset/hamada/greeting-02-bye-hamada_stageii.npz
Output file: ../robot/ik_based/pkl/008394.pkl
Status: SKIPPED (ALREADY EXISTS)
==================================================

=== SKIPPED (ALREADY EXISTS) - 2025-10-14 21:40:11 ===
File index: 008395
Input file: /data/retarget/locomotion/raw/AMASS_SMPLXG/Eyes_Japan_Dataset/hamada/greeting-03-election-hamada_stageii.npz
Output file: ../robot/ik_based/pkl/008395.pkl
Status: SKIPPED (ALREADY EXISTS)
==================================================

=== SKIPPED (ALREADY EXISTS) - 2025-10-14 21:40:11 ===
File index: 008396
Input file: /data/retarget/locomotion/raw/AMASS_SMPLXG/Eyes_Japan_Dataset/hamada/greeting-04-salute_(head)-hamada_stageii.npz
Output file: ../robot/ik_based/pkl/008396.pkl
Status: SKIPPED (ALREADY EXISTS)
==================================================

=== SKIPPED (ALREADY EXISTS) - 2025-10-14 21:40:11 ===
File index: 008397
Input file: /data/retarget/locomotion/raw/AMASS_SMPLXG/Eyes_Japan_Dataset/hamada/greeting-05-salute_(chest)-hamada_stageii.npz
Output file: ../robot/ik_based/pkl/008397.pkl
Status: SKIPPED (ALREADY EXISTS)
==================================================

=== SKIPPED (ALREADY EXISTS) - 2025-10-14 21:40:11 ===
File index: 008398
Input file: /data/retarget/locomotion/raw/AMASS_SMPLXG/Eyes_Japan_Dataset/hamada/greeting-07-bow-hamada_stageii.npz
Output file: ../robot/ik_based/pkl/008398.pkl
Status: SKIPPED (ALREADY EXISTS)
==================================================

=== SKIPPED (ALREADY EXISTS) - 2025-10-14 21:40:11 ===
File index: 008399
Input file: /data/retarget/locomotion/raw/AMASS_SMPLXG/Eyes_Japan_Dataset/hamada/greeting-08-shakehands-hamada_stageii.npz
Output file: ../robot/ik_based/pkl/008399.pkl
Status: SKIPPED (ALREADY EXISTS)
==================================================

=== SKIPPED (ALREADY EXISTS) - 2025-10-14 21:40:11 ===
File index: 008400
Input file: /data/retarget/locomotion/raw/AMASS_SMPLXG/Eyes_Japan_Dataset/hamada/greeting-09-certificate-hamada_stageii.npz
Output file: ../robot/ik_based/pkl/008400.pkl
Status: SKIPPED (ALREADY EXISTS)
==================================================

=== SKIPPED (ALREADY EXISTS) - 2025-10-14 21:40:11 ===
File index: 008401
Input file: /data/retarget/locomotion/raw/AMASS_SMPLXG/Eyes_Japan_Dataset/hamada/greeting-10-card_exchange-hamada_stageii.npz
Output file: ../robot/ik_based/pkl/008401.pkl
Status: SKIPPED (ALREADY EXISTS)
==================================================

=== SKIPPED (ALREADY EXISTS) - 2025-10-14 21:40:11 ===
File index: 008402
Input file: /data/retarget/locomotion/raw/AMASS_SMPLXG/Eyes_Japan_Dataset/hamada/jump-01-normal-hamada_stageii.npz
Output file: ../robot/ik_based/pkl/008402.pkl
Status: SKIPPED (ALREADY EXISTS)
==================================================

=== SKIPPED (ALREADY EXISTS) - 2025-10-14 21:40:11 ===
File index: 008403
Input file: /data/retarget/locomotion/raw/AMASS_SMPLXG/Eyes_Japan_Dataset/hamada/jump-02-leap-hamada_stageii.npz
Output file: ../robot/ik_based/pkl/008403.pkl
Status: SKIPPED (ALREADY EXISTS)
==================================================

=== SKIPPED (ALREADY EXISTS) - 2025-10-14 21:40:11 ===
File index: 008404
Input file: /data/retarget/locomotion/raw/AMASS_SMPLXG/Eyes_Japan_Dataset/hamada/jump-04-horizontal-hamada_stageii.npz
Output file: ../robot/ik_based/pkl/008404.pkl
Status: SKIPPED (ALREADY EXISTS)
==================================================

=== SKIPPED (ALREADY EXISTS) - 2025-10-14 21:40:11 ===
File index: 008405
Input file: /data/retarget/locomotion/raw/AMASS_SMPLXG/Eyes_Japan_Dataset/hamada/jump-06-rope_normal_run_fast-hamada_stageii.npz
Output file: ../robot/ik_based/pkl/008405.pkl
Status: SKIPPED (ALREADY EXISTS)
==================================================

=== SKIPPED (ALREADY EXISTS) - 2025-10-14 21:40:11 ===
File index: 008406
Input file: /data/retarget/locomotion/raw/AMASS_SMPLXG/Eyes_Japan_Dataset/hamada/jump-07-rope_double-hamada_stageii.npz
Output file: ../robot/ik_based/pkl/008406.pkl
Status: SKIPPED (ALREADY EXISTS)
==================================================

=== SKIPPED (ALREADY EXISTS) - 2025-10-14 21:40:11 ===
File index: 008407
Input file: /data/retarget/locomotion/raw/AMASS_SMPLXG/Eyes_Japan_Dataset/hamada/jump-08-rope_backward-hamada_stageii.npz
Output file: ../robot/ik_based/pkl/008407.pkl
Status: SKIPPED (ALREADY EXISTS)
==================================================

=== SKIPPED (ALREADY EXISTS) - 2025-10-14 21:40:11 ===
File index: 008408
Input file: /data/retarget/locomotion/raw/AMASS_SMPLXG/Eyes_Japan_Dataset/hamada/jump-09-rope_cross-hamada_stageii.npz
Output file: ../robot/ik_based/pkl/008408.pkl
Status: SKIPPED (ALREADY EXISTS)
==================================================

=== SKIPPED (ALREADY EXISTS) - 2025-10-14 21:40:11 ===
File index: 008409
Input file: /data/retarget/locomotion/raw/AMASS_SMPLXG/Eyes_Japan_Dataset/hamada/jump-10-rope_long-hamada_stageii.npz
Output file: ../robot/ik_based/pkl/008409.pkl
Status: SKIPPED (ALREADY EXISTS)
==================================================

=== SKIPPED (ALREADY EXISTS) - 2025-10-14 21:40:11 ===
File index: 008410
Input file: /data/retarget/locomotion/raw/AMASS_SMPLXG/Eyes_Japan_Dataset/hamada/jump-11-warmup-hamada_stageii.npz
Output file: ../robot/ik_based/pkl/008410.pkl
Status: SKIPPED (ALREADY EXISTS)
==================================================

=== SKIPPED (ALREADY EXISTS) - 2025-10-14 21:40:11 ===
File index: 008411
Input file: /data/retarget/locomotion/raw/AMASS_SMPLXG/Eyes_Japan_Dataset/hamada/jump-12-boxer_step-hamada_stageii.npz
Output file: ../robot/ik_based/pkl/008411.pkl
Status: SKIPPED (ALREADY EXISTS)
==================================================

=== SKIPPED (ALREADY EXISTS) - 2025-10-14 21:40:11 ===
File index: 008412
Input file: /data/retarget/locomotion/raw/AMASS_SMPLXG/Eyes_Japan_Dataset/hamada/jump-13-matrix-hamada_stageii.npz
Output file: ../robot/ik_based/pkl/008412.pkl
Status: SKIPPED (ALREADY EXISTS)
==================================================

=== ERROR LOG - 2025-10-14 21:40:13 ===
Input file: /data/retarget/locomotion/raw/AMASS_SMPLXG/Eyes_Japan_Dataset/hamada/male_stagei.npz
Output file: ../robot/ik_based/pkl/008413.pkl
Robot type: unitree_g1
Processing time: 2.25 seconds
Error message: 'pose_body is not a file in the archive'
Error type: KeyError
==================================================

=== FILE FAILURE - 2025-10-14 21:40:13 ===
File index: 008413
File number: 244/9587
Input file: /data/retarget/locomotion/raw/AMASS_SMPLXG/Eyes_Japan_Dataset/hamada/male_stagei.npz
Output file: ../robot/ik_based/pkl/008413.pkl
Processing time: 2.25 seconds
Total file time: 2.64 seconds
Status: FAILED
==================================================

=== SKIPPED (ALREADY EXISTS) - 2025-10-14 21:40:13 ===
File index: 008414
Input file: /data/retarget/locomotion/raw/AMASS_SMPLXG/Eyes_Japan_Dataset/hamada/pain-01-headache-hamada_stageii.npz
[...]
Output file: ../robot/ik_based/pkl/008693.pkl
Status: SKIPPED (ALREADY EXISTS)
==================================================

=== SKIPPED (ALREADY EXISTS) - 2025-10-14 21:40:22 ===
File index: 008694
Input file: /data/retarget/locomotion/raw/AMASS_SMPLXG/Eyes_Japan_Dataset/kanno/walk-14-backpack-kanno_stageii.npz
Output file: ../robot/ik_based/pkl/008694.pkl
Status: SKIPPED (ALREADY EXISTS)
==================================================

=== SKIPPED (ALREADY EXISTS) - 2025-10-14 21:40:22 ===
File index: 008695
Input file: /data/retarget/locomotion/raw/AMASS_SMPLXG/Eyes_Japan_Dataset/kanno/walk-15-pull-kanno_stageii.npz
Output file: ../robot/ik_based/pkl/008695.pkl
Status: SKIPPED (ALREADY EXISTS)
==================================================

=== SKIPPED (ALREADY EXISTS) - 2025-10-14 21:40:22 ===
File index: 008696
Input file: /data/retarget/locomotion/raw/AMASS_SMPLXG/Eyes_Japan_Dataset/kanno/walk-16-push_by_hand-kanno_stageii.npz
Output file: ../robot/ik_based/pkl/008696.pkl
Status: SKIPPED (ALREADY EXISTS)
==================================================

=== SKIPPED (ALREADY EXISTS) - 2025-10-14 21:40:22 ===
File index: 008697
Input file: /data/retarget/locomotion/raw/AMASS_SMPLXG/Eyes_Japan_Dataset/kanno/walk-17-push_by_back-kanno_stageii.npz
Output file: ../robot/ik_based/pkl/008697.pkl
Status: SKIPPED (ALREADY EXISTS)
==================================================

=== SKIPPED (ALREADY EXISTS) - 2025-10-14 21:40:22 ===
File index: 008698
Input file: /data/retarget/locomotion/raw/AMASS_SMPLXG/Eyes_Japan_Dataset/kanno/walk-19-shuffle_backward-kanno_stageii.npz
Output file: ../robot/ik_based/pkl/008698.pkl
Status: SKIPPED (ALREADY EXISTS)
==================================================

=== SKIPPED (ALREADY EXISTS) - 2025-10-14 21:40:22 ===
File index: 008699
Input file: /data/retarget/locomotion/raw/AMASS_SMPLXG/Eyes_Japan_Dataset/kanno/walk-21-one_leg-kanno_stageii.npz
Output file: ../robot/ik_based/pkl/008699.pkl
Status: SKIPPED (ALREADY EXISTS)
==================================================

=== SKIPPED (ALREADY EXISTS) - 2025-10-14 21:40:22 ===
File index: 008700
Input file: /data/retarget/locomotion/raw/AMASS_SMPLXG/Eyes_Japan_Dataset/kanno/walk-26-exhausted-kanno_stageii.npz
Output file: ../robot/ik_based/pkl/008700.pkl
Status: SKIPPED (ALREADY EXISTS)
==================================================

=== SKIPPED (ALREADY EXISTS) - 2025-10-14 21:40:22 ===
File index: 008701
Input file: /data/retarget/locomotion/raw/AMASS_SMPLXG/Eyes_Japan_Dataset/kanno/walk-29-look_down-kanno_stageii.npz
Output file: ../robot/ik_based/pkl/008701.pkl
Status: SKIPPED (ALREADY EXISTS)
==================================================

=== SKIPPED (ALREADY EXISTS) - 2025-10-14 21:40:22 ===
File index: 008702
Input file: /data/retarget/locomotion/raw/AMASS_SMPLXG/Eyes_Japan_Dataset/kawaguchi/accident-01-dodge-kawaguchi_stageii.npz
Output file: ../robot/ik_based/pkl/008702.pkl
Status: SKIPPED (ALREADY EXISTS)
==================================================

=== SKIPPED (ALREADY EXISTS) - 2025-10-14 21:40:22 ===
File index: 008703
Input file: /data/retarget/locomotion/raw/AMASS_SMPLXG/Eyes_Japan_Dataset/kawaguchi/accident-02-dodge_fast-kawaguchi_stageii.npz
Output file: ../robot/ik_based/pkl/008703.pkl
Status: SKIPPED (ALREADY EXISTS)
==================================================

=== ERROR LOG - 2025-10-14 21:40:25 ===
Input file: /data/retarget/locomotion/raw/AMASS_SMPLXG/Eyes_Japan_Dataset/kawaguchi/female_stagei.npz
Output file: ../robot/ik_based/pkl/008704.pkl
Robot type: unitree_g1
Processing time: 2.46 seconds
Error message: 'pose_body is not a file in the archive'
Error type: KeyError
==================================================

=== FILE FAILURE - 2025-10-14 21:40:25 ===
File index: 008704
File number: 535/9587
Input file: /data/retarget/locomotion/raw/AMASS_SMPLXG/Eyes_Japan_Dataset/kawaguchi/female_stagei.npz
Output file: ../robot/ik_based/pkl/008704.pkl
Processing time: 2.46 seconds
Total file time: 2.65 seconds
Status: FAILED
==================================================

=== SKIPPED (ALREADY EXISTS) - 2025-10-14 21:40:25 ===
File index: 008705
Input file: /data/retarget/locomotion/raw/AMASS_SMPLXG/Eyes_Japan_Dataset/kawaguchi/gesture_etc-04-set_4-kawaguchi_stageii.npz
Output file: ../robot/ik_based/pkl/008705.pkl
Status: SKIPPED (ALREADY EXISTS)
==================================================

=== SKIPPED (ALREADY EXISTS) - 2025-10-14 21:40:25 ===
File index: 008706
Input file: /data/retarget/locomotion/raw/AMASS_SMPLXG/Eyes_Japan_Dataset/kawaguchi/gesture_etc-07-over_stretch-kawaguchi_stageii.npz
Output file: ../robot/ik_based/pkl/008706.pkl
Status: SKIPPED (ALREADY EXISTS)
==================================================

=== SKIPPED (ALREADY EXISTS) - 2025-10-14 21:40:25 ===
File index: 008707
Input file: /data/retarget/locomotion/raw/AMASS_SMPLXG/Eyes_Japan_Dataset/kawaguchi/gesture_etc-16-dryer-kawaguchi_stageii.npz
Output file: ../robot/ik_based/pkl/008707.pkl
Status: SKIPPED (ALREADY EXISTS)
==================================================

=== SKIPPED (ALREADY EXISTS) - 2025-10-14 21:40:25 ===
File index: 008708
Input file: /data/retarget/locomotion/raw/AMASS_SMPLXG/Eyes_Japan_Dataset/kawaguchi/gesture_etc-20-swing_chair-kawaguchi_stageii.npz
Output file: ../robot/ik_based/pkl/008708.pkl
Status: SKIPPED (ALREADY EXISTS)
==================================================

=== SKIPPED (ALREADY EXISTS) - 2025-10-14 21:40:25 ===
File index: 008709
Input file: /data/retarget/locomotion/raw/AMASS_SMPLXG/Eyes_Japan_Dataset/kawaguchi/gesture_etc-30-fxxk-kawaguchi_stageii.npz
Output file: ../robot/ik_based/pkl/008709.pkl
Status: SKIPPED (ALREADY EXISTS)
==================================================

=== SKIPPED (ALREADY EXISTS) - 2025-10-14 21:40:25 ===
File index: 008710
Input file: /data/retarget/locomotion/raw/AMASS_SMPLXG/Eyes_Japan_Dataset/kawaguchi/gesture_etc-31-ok-kawaguchi_stageii.npz
Output file: ../robot/ik_based/pkl/008710.pkl
Status: SKIPPED (ALREADY EXISTS)
==================================================

=== SKIPPED (ALREADY EXISTS) - 2025-10-14 21:40:25 ===
File index: 008711
Input file: /data/retarget/locomotion/raw/AMASS_SMPLXG/Eyes_Japan_Dataset/kawaguchi/gesture_etc-33-watch_here-kawaguchi_stageii.npz
Output file: ../robot/ik_based/pkl/008711.pkl
Status: SKIPPED (ALREADY EXISTS)
==================================================

=== SKIPPED (ALREADY EXISTS) - 2025-10-14 21:40:25 ===
File index: 008712
Input file: /data/retarget/locomotion/raw/AMASS_SMPLXG/Eyes_Japan_Dataset/kawaguchi/gesture_etc-34-peace-kawaguchi_stageii.npz
Output file: ../robot/ik_based/pkl/008712.pkl
Status: SKIPPED (ALREADY EXISTS)
==================================================

=== SKIPPED (ALREADY EXISTS) - 2025-10-14 21:40:25 ===
File index: 008713
Input file: /data/retarget/locomotion/raw/AMASS_SMPLXG/Eyes_Japan_Dataset/kawaguchi/gesture_etc-35-west_side-kawaguchi_stageii.npz
Output file: ../robot/ik_based/pkl/008713.pkl
Status: SKIPPED (ALREADY EXISTS)
==================================================

=== SKIPPED (ALREADY EXISTS) - 2025-10-14 21:40:25 ===
File index: 008714
Input file: /data/retarget/locomotion/raw/AMASS_SMPLXG/Eyes_Japan_Dataset/kawaguchi/gesture_etc-39-giant_baba-kawaguchi_stageii.npz
Output file: ../robot/ik_based/pkl/008714.pkl
Status: SKIPPED (ALREADY EXISTS)
==================================================

=== SKIPPED (ALREADY EXISTS) - 2025-10-14 21:40:25 ===
File index: 008715
Input file: /data/retarget/locomotion/raw/AMASS_SMPLXG/Eyes_Japan_Dataset/kawaguchi/gesture_etc-42-hung_over-kawaguchi_stageii.npz
Output file: ../robot/ik_based/pkl/008715.pkl
Status: SKIPPED (ALREADY EXISTS)
==================================================

=== SKIPPED (ALREADY EXISTS) - 2025-10-14 21:40:25 ===
File index: 008716
Input file: /data/retarget/locomotion/raw/AMASS_SMPLXG/Eyes_Japan_Dataset/kawaguchi/gesture_etc-50-syuriken-kawaguchi_stageii.npz
Output file: ../robot/ik_based/pkl/008716.pkl
Status: SKIPPED (ALREADY EXISTS)
==================================================

=== SKIPPED (ALREADY EXISTS) - 2025-10-14 21:40:25 ===
File index: 008717
Input file: /data/retarget/locomotion/raw/AMASS_SMPLXG/Eyes_Japan_Dataset/kawaguchi/gesture_etc-51-cramp-kawaguchi_stageii.npz
Output file: ../robot/ik_based/pkl/008717.pkl
Status: SKIPPED (ALREADY EXISTS)
==================================================

=== SKIPPED (ALREADY EXISTS) - 2025-10-14 21:40:25 ===
File index: 008718
Input file: /data/retarget/locomotion/raw/AMASS_SMPLXG/Eyes_Japan_Dataset/kawaguchi/greeting-01-hello-kawaguchi_stageii.npz
Output file: ../robot/ik_based/pkl/008718.pkl
Status: SKIPPED (ALREADY EXISTS)
==================================================

=== SKIPPED (ALREADY EXISTS) - 2025-10-14 21:40:25 ===
File index: 008719
Input file: /data/retarget/locomotion/raw/AMASS_SMPLXG/Eyes_Japan_Dataset/kawaguchi/greeting-02-bye-kawaguchi_stageii.npz
Output file: ../robot/ik_based/pkl/008719.pkl
Status: SKIPPED (ALREADY EXISTS)
==================================================

=== SKIPPED (ALREADY EXISTS) - 2025-10-14 21:40:25 ===
File index: 008720
Input file: /data/retarget/locomotion/raw/AMASS_SMPLXG/Eyes_Japan_Dataset/kawaguchi/greeting-03-election-kawaguchi_stageii.npz
Output file: ../robot/ik_based/pkl/008720.pkl
Status: SKIPPED (ALREADY EXISTS)
==================================================

=== SKIPPED (ALREADY EXISTS) - 2025-10-14 21:40:25 ===
File index: 008721
Input file: /data/retarget/locomotion/raw/AMASS_SMPLXG/Eyes_Japan_Dataset/kawaguchi/greeting-04-salute_(head)-kawaguchi_stageii.npz
Output file: ../robot/ik_based/pkl/008721.pkl
Status: SKIPPED (ALREADY EXISTS)
==================================================

=== SKIPPED (ALREADY EXISTS) - 2025-10-14 21:40:25 ===
File index: 008722
Input file: /data/retarget/locomotion/raw/AMASS_SMPLXG/Eyes_Japan_Dataset/kawaguchi/greeting-08-shakehands-kawaguchi_stageii.npz
Output file: ../robot/ik_based/pkl/008722.pkl
Status: SKIPPED (ALREADY EXISTS)
==================================================

=== SKIPPED (ALREADY EXISTS) - 2025-10-14 21:40:25 ===
File index: 008723
Input file: /data/retarget/locomotion/raw/AMASS_SMPLXG/Eyes_Japan_Dataset/kawaguchi/greeting-09-certificate-kawaguchi_stageii.npz
Output file: ../robot/ik_based/pkl/008723.pkl
Status: SKIPPED (ALREADY EXISTS)
==================================================

=== SKIPPED (ALREADY EXISTS) - 2025-10-14 21:40:25 ===
File index: 008724
Input file: /data/retarget/locomotion/raw/AMASS_SMPLXG/Eyes_Japan_Dataset/kawaguchi/jump-02-leap-kawaguchi_stageii.npz
Output file: ../robot/ik_based/pkl/008724.pkl
Status: SKIPPED (ALREADY EXISTS)
==================================================

=== SKIPPED (ALREADY EXISTS) - 2025-10-14 21:40:25 ===
File index: 008725
Input file: /data/retarget/locomotion/raw/AMASS_SMPLXG/Eyes_Japan_Dataset/kawaguchi/jump-03-vertical-kawaguchi_stageii.npz
Output file: ../robot/ik_based/pkl/008725.pkl
Status: SKIPPED (ALREADY EXISTS)
==================================================

=== SKIPPED (ALREADY EXISTS) - 2025-10-14 21:40:25 ===
File index: 008726
Input file: /data/retarget/locomotion/raw/AMASS_SMPLXG/Eyes_Japan_Dataset/kawaguchi/jump-05-rope_normal_run-kawaguchi_stageii.npz
Output file: ../robot/ik_based/pkl/008726.pkl
Status: SKIPPED (ALREADY EXISTS)
==================================================

=== SKIPPED (ALREADY EXISTS) - 2025-10-14 21:40:25 ===
File index: 008727
Input file: /data/retarget/locomotion/raw/AMASS_SMPLXG/Eyes_Japan_Dataset/kawaguchi/jump-08-rope_backward-kawaguchi_stageii.npz
Output file: ../robot/ik_based/pkl/008727.pkl
Status: SKIPPED (ALREADY EXISTS)
==================================================

=== SKIPPED (ALREADY EXISTS) - 2025-10-14 21:40:25 ===
File index: 008728
Input file: /data/retarget/locomotion/raw/AMASS_SMPLXG/Eyes_Japan_Dataset/kawaguchi/jump-13-matrix-kawaguchi_stageii.npz
Output file: ../robot/ik_based/pkl/008728.pkl
Status: SKIPPED (ALREADY EXISTS)
==================================================

=== SKIPPED (ALREADY EXISTS) - 2025-10-14 21:40:25 ===
File index: 008729
Input file: /data/retarget/locomotion/raw/AMASS_SMPLXG/Eyes_Japan_Dataset/kawaguchi/pain-01-headache-kawaguchi_stageii.npz
Output file: ../robot/ik_based/pkl/008729.pkl
Status: SKIPPED (ALREADY EXISTS)
==================================================

=== SKIPPED (ALREADY EXISTS) - 2025-10-14 21:40:25 ===
File index: 008730
Input file: /data/retarget/locomotion/raw/AMASS_SMPLXG/Eyes_Japan_Dataset/kawaguchi/pain-02-stomachache-kawaguchi_stageii.npz
Output file: ../robot/ik_based/pkl/008730.pkl
Status: SKIPPED (ALREADY EXISTS)
==================================================

=== SKIPPED (ALREADY EXISTS) - 2025-10-14 21:40:25 ===
File index: 008731
Input file: /data/retarget/locomotion/raw/AMASS_SMPLXG/Eyes_Japan_Dataset/kawaguchi/pose-01-normal-kawaguchi_stageii.npz
Output file: ../robot/ik_based/pkl/008731.pkl
Status: SKIPPED (ALREADY EXISTS)
==================================================

=== SKIPPED (ALREADY EXISTS) - 2025-10-14 21:40:25 ===
File index: 008732
Input file: /data/retarget/locomotion/raw/AMASS_SMPLXG/Eyes_Japan_Dataset/kawaguchi/pose-02-rest-kawaguchi_stageii.npz
Output file: ../robot/ik_based/pkl/008732.pkl
Status: SKIPPED (ALREADY EXISTS)
==================================================

=== SKIPPED (ALREADY EXISTS) - 2025-10-14 21:40:25 ===
File index: 008733
Input file: /data/retarget/locomotion/raw/AMASS_SMPLXG/Eyes_Japan_Dataset/kawaguchi/pose-03-open_leg-kawaguchi_stageii.npz
Output file: ../robot/ik_based/pkl/008733.pkl
Status: SKIPPED (ALREADY EXISTS)
==================================================

=== SKIPPED (ALREADY EXISTS) - 2025-10-14 21:40:25 ===
File index: 008734
Input file: /data/retarget/locomotion/raw/AMASS_SMPLXG/Eyes_Japan_Dataset/kawaguchi/pose-04-drank-kawaguchi_stageii.npz
Output file: ../robot/ik_based/pkl/008734.pkl
Status: SKIPPED (ALREADY EXISTS)
==================================================

=== SKIPPED (ALREADY EXISTS) - 2025-10-14 21:40:25 ===
File index: 008735
Input file: /data/retarget/locomotion/raw/AMASS_SMPLXG/Eyes_Japan_Dataset/kawaguchi/pose-05-cross_leg-kawaguchi_stageii.npz
Output file: ../robot/ik_based/pkl/008735.pkl
Status: SKIPPED (ALREADY EXISTS)
==================================================

=== SKIPPED (ALREADY EXISTS) - 2025-10-14 21:40:25 ===
File index: 008736
Input file: /data/retarget/locomotion/raw/AMASS_SMPLXG/Eyes_Japan_Dataset/kawaguchi/pose-08-pray_buddhismintone-kawaguchi_stageii.npz
Output file: ../robot/ik_based/pkl/008736.pkl
Status: SKIPPED (ALREADY EXISTS)
==================================================

=== SKIPPED (ALREADY EXISTS) - 2025-10-14 21:40:25 ===
File index: 008737
Input file: /data/retarget/locomotion/raw/AMASS_SMPLXG/Eyes_Japan_Dataset/kawaguchi/pose-09-pray_buddhism-kawaguchi_stageii.npz
Output file: ../robot/ik_based/pkl/008737.pkl
Status: SKIPPED (ALREADY EXISTS)
==================================================

=== SKIPPED (ALREADY EXISTS) - 2025-10-14 21:40:25 ===
File index: 008738
Input file: /data/retarget/locomotion/raw/AMASS_SMPLXG/Eyes_Japan_Dataset/kawaguchi/pose-17-one_leg-kawaguchi_stageii.npz
Output file: ../robot/ik_based/pkl/008738.pkl
Status: SKIPPED (ALREADY EXISTS)
==================================================

=== SKIPPED (ALREADY EXISTS) - 2025-10-14 21:40:25 ===
File index: 008739
Input file: /data/retarget/locomotion/raw/AMASS_SMPLXG/Eyes_Japan_Dataset/kawaguchi/sitdown_standup-01-impolite-kawaguchi_stageii.npz
Output file: ../robot/ik_based/pkl/008739.pkl
Status: SKIPPED (ALREADY EXISTS)
==================================================

=== SKIPPED (ALREADY EXISTS) - 2025-10-14 21:40:25 ===
File index: 008740
Input file: /data/retarget/locomotion/raw/AMASS_SMPLXG/Eyes_Japan_Dataset/kawaguchi/sitdown_standup-10-observe-kawaguchi_stageii.npz
Output file: ../robot/ik_based/pkl/008740.pkl
Status: SKIPPED (ALREADY EXISTS)
==================================================

=== SKIPPED (ALREADY EXISTS) - 2025-10-14 21:40:25 ===
File index: 008741
Input file: /data/retarget/locomotion/raw/AMASS_SMPLXG/Eyes_Japan_Dataset/kawaguchi/sitdown_standup-11-one_knee_drawn_up-kawaguchi_stageii.npz
Output file: ../robot/ik_based/pkl/008741.pkl
Status: SKIPPED (ALREADY EXISTS)
==================================================

=== SKIPPED (ALREADY EXISTS) - 2025-10-14 21:40:25 ===
File index: 008742
Input file: /data/retarget/locomotion/raw/AMASS_SMPLXG/Eyes_Japan_Dataset/kawaguchi/throw_toss-04-both_hands_over_light-kawaguchi_stageii.npz
Output file: ../robot/ik_based/pkl/008742.pkl
Status: SKIPPED (ALREADY EXISTS)
==================================================

=== SKIPPED (ALREADY EXISTS) - 2025-10-14 21:40:25 ===
File index: 008743
Input file: /data/retarget/locomotion/raw/AMASS_SMPLXG/Eyes_Japan_Dataset/kawaguchi/throw_toss-05-both_hands_over_heavy-kawaguchi_stageii.npz
Output file: ../robot/ik_based/pkl/008743.pkl
Status: SKIPPED (ALREADY EXISTS)
==================================================

=== SKIPPED (ALREADY EXISTS) - 2025-10-14 21:40:25 ===
File index: 008744
Input file: /data/retarget/locomotion/raw/AMASS_SMPLXG/Eyes_Japan_Dataset/kawaguchi/throw_toss-10-javelin-kawaguchi_stageii.npz
Output file: ../robot/ik_based/pkl/008744.pkl
Status: SKIPPED (ALREADY EXISTS)
==================================================

=== SKIPPED (ALREADY EXISTS) - 2025-10-14 21:40:25 ===
File index: 008745
Input file: /data/retarget/locomotion/raw/AMASS_SMPLXG/Eyes_Japan_Dataset/kawaguchi/throw_toss-17-pass_to_back_light-kawaguchi_stageii.npz
Output file: ../robot/ik_based/pkl/008745.pkl
Status: SKIPPED (ALREADY EXISTS)
==================================================

=== SKIPPED (ALREADY EXISTS) - 2025-10-14 21:40:25 ===
File index: 008746
Input file: /data/retarget/locomotion/raw/AMASS_SMPLXG/Eyes_Japan_Dataset/kawaguchi/turn-01-call-kawaguchi_stageii.npz
Output file: ../robot/ik_based/pkl/008746.pkl
Status: SKIPPED (ALREADY EXISTS)
==================================================

=== SKIPPED (ALREADY EXISTS) - 2025-10-14 21:40:25 ===
File index: 008747
Input file: /data/retarget/locomotion/raw/AMASS_SMPLXG/Eyes_Japan_Dataset/kawaguchi/turn-02-look_around-kawaguchi_stageii.npz
Output file: ../robot/ik_based/pkl/008747.pkl
Status: SKIPPED (ALREADY EXISTS)
==================================================

=== SKIPPED (ALREADY EXISTS) - 2025-10-14 21:40:25 ===
File index: 008748
Input file: /data/retarget/locomotion/raw/AMASS_SMPLXG/Eyes_Japan_Dataset/kawaguchi/turn-03-look_at-kawaguchi_stageii.npz
Output file: ../robot/ik_based/pkl/008748.pkl
Status: SKIPPED (ALREADY EXISTS)
==================================================

=== SKIPPED (ALREADY EXISTS) - 2025-10-14 21:40:25 ===
File index: 008749
Input file: /data/retarget/locomotion/raw/AMASS_SMPLXG/Eyes_Japan_Dataset/kawaguchi/turn-05-turn-kawaguchi_stageii.npz
Output file: ../robot/ik_based/pkl/008749.pkl
Status: SKIPPED (ALREADY EXISTS)
==================================================

=== ERROR LOG - 2025-10-14 21:43:52 ===
Input file: /data/retarget/locomotion/raw/AMASS_SMPLXG/Eyes_Japan_Dataset/kudo/gesture_etc-10-snip_nail-kudo_stageii.npz
Output file: ../robot/ik_based/pkl/008750.pkl
Robot type: unitree_g1
Processing time: 207.02 seconds

STEP-BY-STEP TIMING (FAILED):
  Load Smplx: 68.57s
  Align Fps: 36.45s
  Init Retarget: 3.27s
  Init Visualization: 0.00s
  Process Frames: 94.66s (avg: 0.051s/frame)
  Convert Arrays: 0.01s
Error message: CUDA error: out of memory
CUDA kernel errors might be asynchronously reported at some other API call, so the stacktrace below might be incorrect.
For debugging consider passing CUDA_LAUNCH_BLOCKING=1
Compile with `TORCH_USE_CUDA_DSA` to enable device-side assertions.

Error type: AcceleratorError
==================================================
