
=== SKIPPED (ALREADY EXISTS) - 2025-10-14 22:27:39 ===
File index: 009000
Input file: /data/retarget/locomotion/raw/AMASS_SMPLXG/GRAB/s1/binoculars_offhand_1_stageii.npz
Output file: ../robot/ik_based/pkl/009000.pkl
Status: SKIPPED (ALREADY EXISTS) - NO PROCESSING PERFORMED
==================================================

=== SKIPPED (ALREADY EXISTS) - 2025-10-14 22:27:39 ===
File index: 009001
Input file: /data/retarget/locomotion/raw/AMASS_SMPLXG/GRAB/s1/binoculars_pass_1_stageii.npz
Output file: ../robot/ik_based/pkl/009001.pkl
Status: SKIPPED (ALREADY EXISTS) - NO PROCESSING PERFORMED
==================================================

=== SKIPPED (ALREADY EXISTS) - 2025-10-14 22:27:39 ===
File index: 009002
Input file: /data/retarget/locomotion/raw/AMASS_SMPLXG/GRAB/s1/binoculars_pick_all_stageii.npz
Output file: ../robot/ik_based/pkl/009002.pkl
Status: SKIPPED (ALREADY EXISTS) - NO PROCESSING PERFORMED
==================================================

=== SKIPPED (ALREADY EXISTS) - 2025-10-14 22:27:39 ===
File index: 009003
Input file: /data/retarget/locomotion/raw/AMASS_SMPLXG/GRAB/s1/binoculars_see_1_stageii.npz
Output file: ../robot/ik_based/pkl/009003.pkl
Status: SKIPPED (ALREADY EXISTS) - NO PROCESSING PERFORMED
==================================================

=== SKIPPED (ALREADY EXISTS) - 2025-10-14 22:27:39 ===
File index: 009004
Input file: /data/retarget/locomotion/raw/AMASS_SMPLXG/GRAB/s1/bowl_drink_1_stageii.npz
Output file: ../robot/ik_based/pkl/009004.pkl
Status: SKIPPED (ALREADY EXISTS) - NO PROCESSING PERFORMED
==================================================

=== SKIPPED (ALREADY EXISTS) - 2025-10-14 22:27:39 ===
File index: 009005
Input file: /data/retarget/locomotion/raw/AMASS_SMPLXG/GRAB/s1/bowl_drink_2_stageii.npz
Output file: ../robot/ik_based/pkl/009005.pkl
Status: SKIPPED (ALREADY EXISTS) - NO PROCESSING PERFORMED
==================================================

=== SKIPPED (ALREADY EXISTS) - 2025-10-14 22:27:39 ===
File index: 009006
Input file: /data/retarget/locomotion/raw/AMASS_SMPLXG/GRAB/s1/bowl_pass_1_stageii.npz
Output file: ../robot/ik_based/pkl/009006.pkl
Status: SKIPPED (ALREADY EXISTS) - NO PROCESSING PERFORMED
==================================================

=== SKIPPED (ALREADY EXISTS) - 2025-10-14 22:27:39 ===
File index: 009007
Input file: /data/retarget/locomotion/raw/AMASS_SMPLXG/GRAB/s1/bowl_pick_all_stageii.npz
Output file: ../robot/ik_based/pkl/009007.pkl
Status: SKIPPED (ALREADY EXISTS) - NO PROCESSING PERFORMED
==================================================

=== SKIPPED (ALREADY EXISTS) - 2025-10-14 22:27:39 ===
File index: 009008
Input file: /data/retarget/locomotion/raw/AMASS_SMPLXG/GRAB/s1/camera_browse_1_stageii.npz
Output file: ../robot/ik_based/pkl/009008.pkl
Status: SKIPPED (ALREADY EXISTS) - NO PROCESSING PERFORMED
==================================================

=== SKIPPED (ALREADY EXISTS) - 2025-10-14 22:27:39 ===
File index: 009009
Input file: /data/retarget/locomotion/raw/AMASS_SMPLXG/GRAB/s1/camera_offhand_1_stageii.npz
Output file: ../robot/ik_based/pkl/009009.pkl
Status: SKIPPED (ALREADY EXISTS) - NO PROCESSING PERFORMED
==================================================

=== SKIPPED (ALREADY EXISTS) - 2025-10-14 22:27:39 ===
File index: 009010
Input file: /data/retarget/locomotion/raw/AMASS_SMPLXG/GRAB/s1/camera_pass_1_stageii.npz
Output file: ../robot/ik_based/pkl/009010.pkl
Status: SKIPPED (ALREADY EXISTS) - NO PROCESSING PERFORMED
==================================================

=== SKIPPED (ALREADY EXISTS) - 2025-10-14 22:27:39 ===
File index: 009011
Input file: /data/retarget/locomotion/raw/AMASS_SMPLXG/GRAB/s1/camera_pick_all_stageii.npz
Output file: ../robot/ik_based/pkl/009011.pkl
Status: SKIPPED (ALREADY EXISTS) - NO PROCESSING PERFORMED
==================================================

=== SKIPPED (ALREADY EXISTS) - 2025-10-14 22:27:39 ===
File index: 009012
Input file: /data/retarget/locomotion/raw/AMASS_SMPLXG/GRAB/s1/camera_takepicture_1_stageii.npz
Output file: ../robot/ik_based/pkl/009012.pkl
Status: SKIPPED (ALREADY EXISTS) - NO PROCESSING PERFORMED
==================================================

=== SKIPPED (ALREADY EXISTS) - 2025-10-14 22:27:39 ===
File index: 009013
Input file: /data/retarget/locomotion/raw/AMASS_SMPLXG/GRAB/s1/camera_takepicture_2_stageii.npz
Output file: ../robot/ik_based/pkl/009013.pkl
Status: SKIPPED (ALREADY EXISTS) - NO PROCESSING PERFORMED
==================================================

=== SKIPPED (ALREADY EXISTS) - 2025-10-14 22:27:39 ===
File index: 009014
Input file: /data/retarget/locomotion/raw/AMASS_SMPLXG/GRAB/s1/camera_takepicture_3_Retake_stageii.npz
Output file: ../robot/ik_based/pkl/009014.pkl
Status: SKIPPED (ALREADY EXISTS) - NO PROCESSING PERFORMED
==================================================

=== SKIPPED (ALREADY EXISTS) - 2025-10-14 22:27:39 ===
File index: 009015
Input file: /data/retarget/locomotion/raw/AMASS_SMPLXG/GRAB/s1/cubelarge_inspect_1_stageii.npz
Output file: ../robot/ik_based/pkl/009015.pkl
Status: SKIPPED (ALREADY EXISTS) - NO PROCESSING PERFORMED
==================================================

=== SKIPPED (ALREADY EXISTS) - 2025-10-14 22:27:39 ===
File index: 009016
Input file: /data/retarget/locomotion/raw/AMASS_SMPLXG/GRAB/s1/cubelarge_offhand_1_stageii.npz
Output file: ../robot/ik_based/pkl/009016.pkl
Status: SKIPPED (ALREADY EXISTS) - NO PROCESSING PERFORMED
==================================================

=== SKIPPED (ALREADY EXISTS) - 2025-10-14 22:27:39 ===
File index: 009017
Input file: /data/retarget/locomotion/raw/AMASS_SMPLXG/GRAB/s1/cubelarge_pass_1_stageii.npz
Output file: ../robot/ik_based/pkl/009017.pkl
Status: SKIPPED (ALREADY EXISTS) - NO PROCESSING PERFORMED
==================================================

=== SKIPPED (ALREADY EXISTS) - 2025-10-14 22:27:39 ===
File index: 009018
Input file: /data/retarget/locomotion/raw/AMASS_SMPLXG/GRAB/s1/cubelarge_pick_all_stageii.npz
Output file: ../robot/ik_based/pkl/009018.pkl
Status: SKIPPED (ALREADY EXISTS) - NO PROCESSING PERFORMED
==================================================

=== SKIPPED (ALREADY EXISTS) - 2025-10-14 22:27:39 ===
File index: 009019
Input file: /data/retarget/locomotion/raw/AMASS_SMPLXG/GRAB/s1/cubemedium_inspect_1_stageii.npz
Output file: ../robot/ik_based/pkl/009019.pkl
Status: SKIPPED (ALREADY EXISTS) - NO PROCESSING PERFORMED
==================================================

=== SKIPPED (ALREADY EXISTS) - 2025-10-14 22:27:39 ===
File index: 009020
Input file: /data/retarget/locomotion/raw/AMASS_SMPLXG/GRAB/s1/cubemedium_offhand_1_stageii.npz
Output file: ../robot/ik_based/pkl/009020.pkl
Status: SKIPPED (ALREADY EXISTS) - NO PROCESSING PERFORMED
==================================================

=== SKIPPED (ALREADY EXISTS) - 2025-10-14 22:27:39 ===
File index: 009021
Input file: /data/retarget/locomotion/raw/AMASS_SMPLXG/GRAB/s1/cubemedium_pass_1_stageii.npz
Output file: ../robot/ik_based/pkl/009021.pkl
Status: SKIPPED (ALREADY EXISTS) - NO PROCESSING PERFORMED
==================================================

=== SKIPPED (ALREADY EXISTS) - 2025-10-14 22:27:39 ===
File index: 009022
Input file: /data/retarget/locomotion/raw/AMASS_SMPLXG/GRAB/s1/cubemedium_pick_all_stageii.npz
Output file: ../robot/ik_based/pkl/009022.pkl
Status: SKIPPED (ALREADY EXISTS) - NO PROCESSING PERFORMED
==================================================

=== SKIPPED (ALREADY EXISTS) - 2025-10-14 22:27:39 ===
File index: 009023
Input file: /data/retarget/locomotion/raw/AMASS_SMPLXG/GRAB/s1/cubesmall_inspect_1_stageii.npz
Output file: ../robot/ik_based/pkl/009023.pkl
Status: SKIPPED (ALREADY EXISTS) - NO PROCESSING PERFORMED
==================================================

=== SKIPPED (ALREADY EXISTS) - 2025-10-14 22:27:39 ===
File index: 009024
Input file: /data/retarget/locomotion/raw/AMASS_SMPLXG/GRAB/s1/cubesmall_offhand_1_stageii.npz
Output file: ../robot/ik_based/pkl/009024.pkl
Status: SKIPPED (ALREADY EXISTS) - NO PROCESSING PERFORMED
==================================================

=== SKIPPED (ALREADY EXISTS) - 2025-10-14 22:27:39 ===
File index: 009025
Input file: /data/retarget/locomotion/raw/AMASS_SMPLXG/GRAB/s1/cubesmall_pass_1_stageii.npz
Output file: ../robot/ik_based/pkl/009025.pkl
Status: SKIPPED (ALREADY EXISTS) - NO PROCESSING PERFORMED
==================================================

=== SKIPPED (ALREADY EXISTS) - 2025-10-14 22:27:39 ===
File index: 009026
Input file: /data/retarget/locomotion/raw/AMASS_SMPLXG/GRAB/s1/cubesmall_pick_all_stageii.npz
Output file: ../robot/ik_based/pkl/009026.pkl
Status: SKIPPED (ALREADY EXISTS) - NO PROCESSING PERFORMED
==================================================

=== SKIPPED (ALREADY EXISTS) - 2025-10-14 22:27:39 ===
File index: 009027
Input file: /data/retarget/locomotion/raw/AMASS_SMPLXG/GRAB/s1/cup_drink_1_stageii.npz
Output file: ../robot/ik_based/pkl/009027.pkl
Status: SKIPPED (ALREADY EXISTS) - NO PROCESSING PERFORMED
==================================================

=== SKIPPED (ALREADY EXISTS) - 2025-10-14 22:27:39 ===
File index: 009028
Input file: /data/retarget/locomotion/raw/AMASS_SMPLXG/GRAB/s1/cup_drink_2_stageii.npz
Output file: ../robot/ik_based/pkl/009028.pkl
Status: SKIPPED (ALREADY EXISTS) - NO PROCESSING PERFORMED
==================================================

=== SKIPPED (ALREADY EXISTS) - 2025-10-14 22:27:39 ===
File index: 009029
Input file: /data/retarget/locomotion/raw/AMASS_SMPLXG/GRAB/s1/cup_pass_1_stageii.npz
Output file: ../robot/ik_based/pkl/009029.pkl
Status: SKIPPED (ALREADY EXISTS) - NO PROCESSING PERFORMED
==================================================

=== SKIPPED (ALREADY EXISTS) - 2025-10-14 22:27:39 ===
File index: 009030
Input file: /data/retarget/locomotion/raw/AMASS_SMPLXG/GRAB/s1/cup_pick_all_stageii.npz
Output file: ../robot/ik_based/pkl/009030.pkl
Status: SKIPPED (ALREADY EXISTS) - NO PROCESSING PERFORMED
==================================================

=== SKIPPED (ALREADY EXISTS) - 2025-10-14 22:27:39 ===
File index: 009031
Input file: /data/retarget/locomotion/raw/AMASS_SMPLXG/GRAB/s1/cup_pour_1_stageii.npz
Output file: ../robot/ik_based/pkl/009031.pkl
Status: SKIPPED (ALREADY EXISTS) - NO PROCESSING PERFORMED
==================================================

=== SKIPPED (ALREADY EXISTS) - 2025-10-14 22:27:39 ===
File index: 009032
Input file: /data/retarget/locomotion/raw/AMASS_SMPLXG/GRAB/s1/cylinderlarge_inspect_1_stageii.npz
Output file: ../robot/ik_based/pkl/009032.pkl
Status: SKIPPED (ALREADY EXISTS) - NO PROCESSING PERFORMED
==================================================

=== SKIPPED (ALREADY EXISTS) - 2025-10-14 22:27:39 ===
File index: 009033
Input file: /data/retarget/locomotion/raw/AMASS_SMPLXG/GRAB/s1/cylinderlarge_offhand_1_stageii.npz
Output file: ../robot/ik_based/pkl/009033.pkl
Status: SKIPPED (ALREADY EXISTS) - NO PROCESSING PERFORMED
==================================================

=== SKIPPED (ALREADY EXISTS) - 2025-10-14 22:27:39 ===
File index: 009034
Input file: /data/retarget/locomotion/raw/AMASS_SMPLXG/GRAB/s1/cylinderlarge_pass_1_stageii.npz
Output file: ../robot/ik_based/pkl/009034.pkl
Status: SKIPPED (ALREADY EXISTS) - NO PROCESSING PERFORMED
==================================================

=== SKIPPED (ALREADY EXISTS) - 2025-10-14 22:27:39 ===
File index: 009035
Input file: /data/retarget/locomotion/raw/AMASS_SMPLXG/GRAB/s1/cylinderlarge_pick_all_stageii.npz
Output file: ../robot/ik_based/pkl/009035.pkl
Status: SKIPPED (ALREADY EXISTS) - NO PROCESSING PERFORMED
==================================================

=== SKIPPED (ALREADY EXISTS) - 2025-10-14 22:27:39 ===
File index: 009036
Input file: /data/retarget/locomotion/raw/AMASS_SMPLXG/GRAB/s1/cylindermedium_inspect_1_stageii.npz
Output file: ../robot/ik_based/pkl/009036.pkl
Status: SKIPPED (ALREADY EXISTS) - NO PROCESSING PERFORMED
==================================================

=== SKIPPED (ALREADY EXISTS) - 2025-10-14 22:27:39 ===
File index: 009037
Input file: /data/retarget/locomotion/raw/AMASS_SMPLXG/GRAB/s1/cylindermedium_offhand_1_stageii.npz
Output file: ../robot/ik_based/pkl/009037.pkl
Status: SKIPPED (ALREADY EXISTS) - NO PROCESSING PERFORMED
==================================================

=== SKIPPED (ALREADY EXISTS) - 2025-10-14 22:27:39 ===
File index: 009038
Input file: /data/retarget/locomotion/raw/AMASS_SMPLXG/GRAB/s1/cylindermedium_pass_1_stageii.npz
Output file: ../robot/ik_based/pkl/009038.pkl
Status: SKIPPED (ALREADY EXISTS) - NO PROCESSING PERFORMED
==================================================

=== SKIPPED (ALREADY EXISTS) - 2025-10-14 22:27:39 ===
File index: 009039
Input file: /data/retarget/locomotion/raw/AMASS_SMPLXG/GRAB/s1/cylindermedium_pick_all_stageii.npz
Output file: ../robot/ik_based/pkl/009039.pkl
Status: SKIPPED (ALREADY EXISTS) - NO PROCESSING PERFORMED
==================================================

=== SKIPPED (ALREADY EXISTS) - 2025-10-14 22:27:39 ===
File index: 009040
Input file: /data/retarget/locomotion/raw/AMASS_SMPLXG/GRAB/s1/cylindersmall_inspect_1_stageii.npz
Output file: ../robot/ik_based/pkl/009040.pkl
Status: SKIPPED (ALREADY EXISTS) - NO PROCESSING PERFORMED
==================================================

=== SKIPPED (ALREADY EXISTS) - 2025-10-14 22:27:39 ===
File index: 009041
Input file: /data/retarget/locomotion/raw/AMASS_SMPLXG/GRAB/s1/cylindersmall_offhand_1_stageii.npz
Output file: ../robot/ik_based/pkl/009041.pkl
Status: SKIPPED (ALREADY EXISTS) - NO PROCESSING PERFORMED
==================================================

=== SKIPPED (ALREADY EXISTS) - 2025-10-14 22:27:39 ===
File index: 009042
Input file: /data/retarget/locomotion/raw/AMASS_SMPLXG/GRAB/s1/cylindersmall_pass_1_stageii.npz
Output file: ../robot/ik_based/pkl/009042.pkl
Status: SKIPPED (ALREADY EXISTS) - NO PROCESSING PERFORMED
==================================================

=== SKIPPED (ALREADY EXISTS) - 2025-10-14 22:27:39 ===
File index: 009043
Input file: /data/retarget/locomotion/raw/AMASS_SMPLXG/GRAB/s1/cylindersmall_pick_all_stageii.npz
Output file: ../robot/ik_based/pkl/009043.pkl
Status: SKIPPED (ALREADY EXISTS) - NO PROCESSING PERFORMED
==================================================

=== SKIPPED (ALREADY EXISTS) - 2025-10-14 22:27:39 ===
File index: 009044
Input file: /data/retarget/locomotion/raw/AMASS_SMPLXG/GRAB/s1/doorknob_use_1_stageii.npz
Output file: ../robot/ik_based/pkl/009044.pkl
Status: SKIPPED (ALREADY EXISTS) - NO PROCESSING PERFORMED
==================================================

=== SKIPPED (ALREADY EXISTS) - 2025-10-14 22:27:39 ===
File index: 009045
Input file: /data/retarget/locomotion/raw/AMASS_SMPLXG/GRAB/s1/doorknob_use_2_stageii.npz
Output file: ../robot/ik_based/pkl/009045.pkl
Status: SKIPPED (ALREADY EXISTS) - NO PROCESSING PERFORMED
==================================================

=== SKIPPED (ALREADY EXISTS) - 2025-10-14 22:27:39 ===
File index: 009046
Input file: /data/retarget/locomotion/raw/AMASS_SMPLXG/GRAB/s1/doorknob_use_fun_1_stageii.npz
Output file: ../robot/ik_based/pkl/009046.pkl
Status: SKIPPED (ALREADY EXISTS) - NO PROCESSING PERFORMED
==================================================

=== SKIPPED (ALREADY EXISTS) - 2025-10-14 22:27:39 ===
File index: 009047
Input file: /data/retarget/locomotion/raw/AMASS_SMPLXG/GRAB/s1/duck_inspect_1_stageii.npz
Output file: ../robot/ik_based/pkl/009047.pkl
Status: SKIPPED (ALREADY EXISTS) - NO PROCESSING PERFORMED
==================================================

=== SKIPPED (ALREADY EXISTS) - 2025-10-14 22:27:39 ===
File index: 009048
Input file: /data/retarget/locomotion/raw/AMASS_SMPLXG/GRAB/s1/duck_offhand_1_stageii.npz
Output file: ../robot/ik_based/pkl/009048.pkl
Status: SKIPPED (ALREADY EXISTS) - NO PROCESSING PERFORMED
==================================================

=== SKIPPED (ALREADY EXISTS) - 2025-10-14 22:27:39 ===
File index: 009049
Input file: /data/retarget/locomotion/raw/AMASS_SMPLXG/GRAB/s1/duck_offhand_2_stageii.npz
Output file: ../robot/ik_based/pkl/009049.pkl
Status: SKIPPED (ALREADY EXISTS) - NO PROCESSING PERFORMED
==================================================

=== SKIPPED (ALREADY EXISTS) - 2025-10-14 22:27:39 ===
File index: 009050
Input file: /data/retarget/locomotion/raw/AMASS_SMPLXG/GRAB/s1/duck_pass_1_stageii.npz
Output file: ../robot/ik_based/pkl/009050.pkl
Status: SKIPPED (ALREADY EXISTS) - NO PROCESSING PERFORMED
==================================================

=== SKIPPED (ALREADY EXISTS) - 2025-10-14 22:27:39 ===
File index: 009051
Input file: /data/retarget/locomotion/raw/AMASS_SMPLXG/GRAB/s1/duck_pick_all_stageii.npz
Output file: ../robot/ik_based/pkl/009051.pkl
Status: SKIPPED (ALREADY EXISTS) - NO PROCESSING PERFORMED
==================================================

=== SKIPPED (ALREADY EXISTS) - 2025-10-14 22:27:39 ===
File index: 009052
Input file: /data/retarget/locomotion/raw/AMASS_SMPLXG/GRAB/s1/elephant_inspect_1_stageii.npz
Output file: ../robot/ik_based/pkl/009052.pkl
Status: SKIPPED (ALREADY EXISTS) - NO PROCESSING PERFORMED
==================================================

=== SKIPPED (ALREADY EXISTS) - 2025-10-14 22:27:39 ===
File index: 009053
Input file: /data/retarget/locomotion/raw/AMASS_SMPLXG/GRAB/s1/elephant_offhand_1_stageii.npz
Output file: ../robot/ik_based/pkl/009053.pkl
Status: SKIPPED (ALREADY EXISTS) - NO PROCESSING PERFORMED
==================================================

=== SKIPPED (ALREADY EXISTS) - 2025-10-14 22:27:39 ===
File index: 009054
Input file: /data/retarget/locomotion/raw/AMASS_SMPLXG/GRAB/s1/elephant_pass_1_stageii.npz
Output file: ../robot/ik_based/pkl/009054.pkl
Status: SKIPPED (ALREADY EXISTS) - NO PROCESSING PERFORMED
==================================================

=== SKIPPED (ALREADY EXISTS) - 2025-10-14 22:27:40 ===
File index: 009055
Input file: /data/retarget/locomotion/raw/AMASS_SMPLXG/GRAB/s1/elephant_pick_all_stageii.npz
Output file: ../robot/ik_based/pkl/009055.pkl
Status: SKIPPED (ALREADY EXISTS) - NO PROCESSING PERFORMED
==================================================

=== SKIPPED (ALREADY EXISTS) - 2025-10-14 22:27:40 ===
File index: 009056
Input file: /data/retarget/locomotion/raw/AMASS_SMPLXG/GRAB/s1/eyeglasses_clean_1_stageii.npz
Output file: ../robot/ik_based/pkl/009056.pkl
Status: SKIPPED (ALREADY EXISTS) - NO PROCESSING PERFORMED
==================================================

=== SKIPPED (ALREADY EXISTS) - 2025-10-14 22:27:40 ===
File index: 009057
Input file: /data/retarget/locomotion/raw/AMASS_SMPLXG/GRAB/s1/eyeglasses_offhand_1_stageii.npz
Output file: ../robot/ik_based/pkl/009057.pkl
Status: SKIPPED (ALREADY EXISTS) - NO PROCESSING PERFORMED
==================================================

=== SKIPPED (ALREADY EXISTS) - 2025-10-14 22:27:40 ===
File index: 009058
Input file: /data/retarget/locomotion/raw/AMASS_SMPLXG/GRAB/s1/eyeglasses_pass_1_stageii.npz
Output file: ../robot/ik_based/pkl/009058.pkl
Status: SKIPPED (ALREADY EXISTS) - NO PROCESSING PERFORMED
==================================================

=== SKIPPED (ALREADY EXISTS) - 2025-10-14 22:27:40 ===
File index: 009059
Input file: /data/retarget/locomotion/raw/AMASS_SMPLXG/GRAB/s1/eyeglasses_pick_all_stageii.npz
Output file: ../robot/ik_based/pkl/009059.pkl
Status: SKIPPED (ALREADY EXISTS) - NO PROCESSING PERFORMED
==================================================

=== SKIPPED (ALREADY EXISTS) - 2025-10-14 22:27:40 ===
File index: 009060
Input file: /data/retarget/locomotion/raw/AMASS_SMPLXG/GRAB/s1/eyeglasses_wear_1_stageii.npz
Output file: ../robot/ik_based/pkl/009060.pkl
Status: SKIPPED (ALREADY EXISTS) - NO PROCESSING PERFORMED
==================================================

=== SKIPPED (ALREADY EXISTS) - 2025-10-14 22:27:40 ===
File index: 009061
Input file: /data/retarget/locomotion/raw/AMASS_SMPLXG/GRAB/s1/flashlight_offhand_1_stageii.npz
Output file: ../robot/ik_based/pkl/009061.pkl
Status: SKIPPED (ALREADY EXISTS) - NO PROCESSING PERFORMED
==================================================

=== SKIPPED (ALREADY EXISTS) - 2025-10-14 22:27:40 ===
File index: 009062
Input file: /data/retarget/locomotion/raw/AMASS_SMPLXG/GRAB/s1/flashlight_on_1_stageii.npz
Output file: ../robot/ik_based/pkl/009062.pkl
Status: SKIPPED (ALREADY EXISTS) - NO PROCESSING PERFORMED
==================================================

=== SKIPPED (ALREADY EXISTS) - 2025-10-14 22:27:40 ===
File index: 009063
Input file: /data/retarget/locomotion/raw/AMASS_SMPLXG/GRAB/s1/flashlight_on_2_stageii.npz
Output file: ../robot/ik_based/pkl/009063.pkl
Status: SKIPPED (ALREADY EXISTS) - NO PROCESSING PERFORMED
==================================================

=== SKIPPED (ALREADY EXISTS) - 2025-10-14 22:27:40 ===
File index: 009064
Input file: /data/retarget/locomotion/raw/AMASS_SMPLXG/GRAB/s1/flashlight_pass_1_stageii.npz
Output file: ../robot/ik_based/pkl/009064.pkl
Status: SKIPPED (ALREADY EXISTS) - NO PROCESSING PERFORMED
==================================================

=== SKIPPED (ALREADY EXISTS) - 2025-10-14 22:27:40 ===
File index: 009065
Input file: /data/retarget/locomotion/raw/AMASS_SMPLXG/GRAB/s1/flashlight_pick_all_stageii.npz
Output file: ../robot/ik_based/pkl/009065.pkl
Status: SKIPPED (ALREADY EXISTS) - NO PROCESSING PERFORMED
==================================================

=== SKIPPED (ALREADY EXISTS) - 2025-10-14 22:27:40 ===
File index: 009066
Input file: /data/retarget/locomotion/raw/AMASS_SMPLXG/GRAB/s1/flute_offhand_1_stageii.npz
Output file: ../robot/ik_based/pkl/009066.pkl
Status: SKIPPED (ALREADY EXISTS) - NO PROCESSING PERFORMED
==================================================

=== SKIPPED (ALREADY EXISTS) - 2025-10-14 22:27:40 ===
File index: 009067
Input file: /data/retarget/locomotion/raw/AMASS_SMPLXG/GRAB/s1/flute_pass_1_stageii.npz
Output file: ../robot/ik_based/pkl/009067.pkl
Status: SKIPPED (ALREADY EXISTS) - NO PROCESSING PERFORMED
==================================================

=== SKIPPED (ALREADY EXISTS) - 2025-10-14 22:27:40 ===
File index: 009068
Input file: /data/retarget/locomotion/raw/AMASS_SMPLXG/GRAB/s1/flute_pick_all_stageii.npz
Output file: ../robot/ik_based/pkl/009068.pkl
Status: SKIPPED (ALREADY EXISTS) - NO PROCESSING PERFORMED
==================================================

=== SKIPPED (ALREADY EXISTS) - 2025-10-14 22:27:40 ===
File index: 009069
Input file: /data/retarget/locomotion/raw/AMASS_SMPLXG/GRAB/s1/flute_play_1_stageii.npz
Output file: ../robot/ik_based/pkl/009069.pkl
Status: SKIPPED (ALREADY EXISTS) - NO PROCESSING PERFORMED
==================================================

=== SKIPPED (ALREADY EXISTS) - 2025-10-14 22:27:40 ===
File index: 009070
Input file: /data/retarget/locomotion/raw/AMASS_SMPLXG/GRAB/s1/fryingpan_cook_1_stageii.npz
Output file: ../robot/ik_based/pkl/009070.pkl
Status: SKIPPED (ALREADY EXISTS) - NO PROCESSING PERFORMED
==================================================

=== SKIPPED (ALREADY EXISTS) - 2025-10-14 22:27:40 ===
File index: 009071
Input file: /data/retarget/locomotion/raw/AMASS_SMPLXG/GRAB/s1/fryingpan_cook_2_stageii.npz
Output file: ../robot/ik_based/pkl/009071.pkl
Status: SKIPPED (ALREADY EXISTS) - NO PROCESSING PERFORMED
==================================================

=== SKIPPED (ALREADY EXISTS) - 2025-10-14 22:27:40 ===
File index: 009072
Input file: /data/retarget/locomotion/raw/AMASS_SMPLXG/GRAB/s1/gamecontroller_offhand_1_stageii.npz
Output file: ../robot/ik_based/pkl/009072.pkl
Status: SKIPPED (ALREADY EXISTS) - NO PROCESSING PERFORMED
==================================================

=== SKIPPED (ALREADY EXISTS) - 2025-10-14 22:27:40 ===
File index: 009073
Input file: /data/retarget/locomotion/raw/AMASS_SMPLXG/GRAB/s1/gamecontroller_pick_all_stageii.npz
Output file: ../robot/ik_based/pkl/009073.pkl
Status: SKIPPED (ALREADY EXISTS) - NO PROCESSING PERFORMED
==================================================

=== SKIPPED (ALREADY EXISTS) - 2025-10-14 22:27:40 ===
File index: 009074
Input file: /data/retarget/locomotion/raw/AMASS_SMPLXG/GRAB/s1/gamecontroller_play_1_stageii.npz
Output file: ../robot/ik_based/pkl/009074.pkl
Status: SKIPPED (ALREADY EXISTS) - NO PROCESSING PERFORMED
==================================================

=== SKIPPED (ALREADY EXISTS) - 2025-10-14 22:27:40 ===
File index: 009075
Input file: /data/retarget/locomotion/raw/AMASS_SMPLXG/GRAB/s1/hammer_pass_1_stageii.npz
Output file: ../robot/ik_based/pkl/009075.pkl
Status: SKIPPED (ALREADY EXISTS) - NO PROCESSING PERFORMED
==================================================

=== SKIPPED (ALREADY EXISTS) - 2025-10-14 22:27:40 ===
File index: 009076
Input file: /data/retarget/locomotion/raw/AMASS_SMPLXG/GRAB/s1/hammer_use_1_stageii.npz
Output file: ../robot/ik_based/pkl/009076.pkl
Status: SKIPPED (ALREADY EXISTS) - NO PROCESSING PERFORMED
==================================================

=== SKIPPED (ALREADY EXISTS) - 2025-10-14 22:27:40 ===
File index: 009077
Input file: /data/retarget/locomotion/raw/AMASS_SMPLXG/GRAB/s1/hammer_use_2_stageii.npz
Output file: ../robot/ik_based/pkl/009077.pkl
Status: SKIPPED (ALREADY EXISTS) - NO PROCESSING PERFORMED
==================================================

=== SKIPPED (ALREADY EXISTS) - 2025-10-14 22:27:40 ===
File index: 009078
Input file: /data/retarget/locomotion/raw/AMASS_SMPLXG/GRAB/s1/hammer_use_3_stageii.npz
Output file: ../robot/ik_based/pkl/009078.pkl
Status: SKIPPED (ALREADY EXISTS) - NO PROCESSING PERFORMED
==================================================

=== SKIPPED (ALREADY EXISTS) - 2025-10-14 22:27:40 ===
File index: 009079
Input file: /data/retarget/locomotion/raw/AMASS_SMPLXG/GRAB/s1/hand_inspect_1_stageii.npz
Output file: ../robot/ik_based/pkl/009079.pkl
Status: SKIPPED (ALREADY EXISTS) - NO PROCESSING PERFORMED
==================================================

=== SKIPPED (ALREADY EXISTS) - 2025-10-14 22:27:40 ===
File index: 009080
Input file: /data/retarget/locomotion/raw/AMASS_SMPLXG/GRAB/s1/hand_offhand_1_stageii.npz
Output file: ../robot/ik_based/pkl/009080.pkl
Status: SKIPPED (ALREADY EXISTS) - NO PROCESSING PERFORMED
==================================================

=== SKIPPED (ALREADY EXISTS) - 2025-10-14 22:27:40 ===
File index: 009081
Input file: /data/retarget/locomotion/raw/AMASS_SMPLXG/GRAB/s1/hand_pass_1_stageii.npz
Output file: ../robot/ik_based/pkl/009081.pkl
Status: SKIPPED (ALREADY EXISTS) - NO PROCESSING PERFORMED
==================================================

=== SKIPPED (ALREADY EXISTS) - 2025-10-14 22:27:40 ===
File index: 009082
Input file: /data/retarget/locomotion/raw/AMASS_SMPLXG/GRAB/s1/headphones_offhand_1_stageii.npz
Output file: ../robot/ik_based/pkl/009082.pkl
Status: SKIPPED (ALREADY EXISTS) - NO PROCESSING PERFORMED
==================================================

=== SKIPPED (ALREADY EXISTS) - 2025-10-14 22:27:40 ===
File index: 009083
Input file: /data/retarget/locomotion/raw/AMASS_SMPLXG/GRAB/s1/headphones_pass_1_stageii.npz
Output file: ../robot/ik_based/pkl/009083.pkl
Status: SKIPPED (ALREADY EXISTS) - NO PROCESSING PERFORMED
==================================================

=== SKIPPED (ALREADY EXISTS) - 2025-10-14 22:27:40 ===
File index: 009084
Input file: /data/retarget/locomotion/raw/AMASS_SMPLXG/GRAB/s1/headphones_use_1_stageii.npz
Output file: ../robot/ik_based/pkl/009084.pkl
Status: SKIPPED (ALREADY EXISTS) - NO PROCESSING PERFORMED
==================================================

=== SKIPPED (ALREADY EXISTS) - 2025-10-14 22:27:40 ===
File index: 009085
Input file: /data/retarget/locomotion/raw/AMASS_SMPLXG/GRAB/s1/knife_pick_all_stageii.npz
Output file: ../robot/ik_based/pkl/009085.pkl
Status: SKIPPED (ALREADY EXISTS) - NO PROCESSING PERFORMED
==================================================

=== SKIPPED (ALREADY EXISTS) - 2025-10-14 22:27:40 ===
File index: 009086
Input file: /data/retarget/locomotion/raw/AMASS_SMPLXG/GRAB/s1/lightbulb_pass_1_stageii.npz
Output file: ../robot/ik_based/pkl/009086.pkl
Status: SKIPPED (ALREADY EXISTS) - NO PROCESSING PERFORMED
==================================================

=== ERROR LOG - 2025-10-14 22:27:41 ===
Input file: /data/retarget/locomotion/raw/AMASS_SMPLXG/GRAB/s1/male_stagei.npz
Output file: ../robot/ik_based/pkl/009087.pkl
Robot type: unitree_g1
Processing time: 1.51 seconds
Error message: 'pose_body is not a file in the archive'
Error type: KeyError
==================================================

=== FILE FAILURE - 2025-10-14 22:27:41 ===
File index: 009087
File number: 88/8757
Input file: /data/retarget/locomotion/raw/AMASS_SMPLXG/GRAB/s1/male_stagei.npz
Output file: ../robot/ik_based/pkl/009087.pkl
Processing time: 1.51 seconds
Total file time: 1.78 seconds
Status: FAILED
==================================================

=== SKIPPED (ALREADY EXISTS) - 2025-10-14 22:27:41 ===
File index: 009088
Input file: /data/retarget/locomotion/raw/AMASS_SMPLXG/GRAB/s1/mouse_offhand_1_stageii.npz
Output file: ../robot/ik_based/pkl/009088.pkl
Status: SKIPPED (ALREADY EXISTS) - NO PROCESSING PERFORMED
==================================================

=== SKIPPED (ALREADY EXISTS) - 2025-10-14 22:27:41 ===
File index: 009089
Input file: /data/retarget/locomotion/raw/AMASS_SMPLXG/GRAB/s1/mouse_pass_1_stageii.npz
Output file: ../robot/ik_based/pkl/009089.pkl
Status: SKIPPED (ALREADY EXISTS) - NO PROCESSING PERFORMED
==================================================

=== SKIPPED (ALREADY EXISTS) - 2025-10-14 22:27:41 ===
File index: 009090
Input file: /data/retarget/locomotion/raw/AMASS_SMPLXG/GRAB/s1/mouse_pick_all_stageii.npz
Output file: ../robot/ik_based/pkl/009090.pkl
Status: SKIPPED (ALREADY EXISTS) - NO PROCESSING PERFORMED
==================================================

=== SKIPPED (ALREADY EXISTS) - 2025-10-14 22:27:41 ===
File index: 009091
Input file: /data/retarget/locomotion/raw/AMASS_SMPLXG/GRAB/s1/mouse_use_1_stageii.npz
Output file: ../robot/ik_based/pkl/009091.pkl
Status: SKIPPED (ALREADY EXISTS) - NO PROCESSING PERFORMED
==================================================

=== SKIPPED (ALREADY EXISTS) - 2025-10-14 22:27:41 ===
File index: 009092
Input file: /data/retarget/locomotion/raw/AMASS_SMPLXG/GRAB/s1/mug_drink_1_stageii.npz
Output file: ../robot/ik_based/pkl/009092.pkl
Status: SKIPPED (ALREADY EXISTS) - NO PROCESSING PERFORMED
==================================================

=== SKIPPED (ALREADY EXISTS) - 2025-10-14 22:27:41 ===
File index: 009093
Input file: /data/retarget/locomotion/raw/AMASS_SMPLXG/GRAB/s1/mug_drink_2_stageii.npz
Output file: ../robot/ik_based/pkl/009093.pkl
Status: SKIPPED (ALREADY EXISTS) - NO PROCESSING PERFORMED
==================================================

=== SKIPPED (ALREADY EXISTS) - 2025-10-14 22:27:41 ===
File index: 009094
Input file: /data/retarget/locomotion/raw/AMASS_SMPLXG/GRAB/s1/mug_drink_3_stageii.npz
Output file: ../robot/ik_based/pkl/009094.pkl
Status: SKIPPED (ALREADY EXISTS) - NO PROCESSING PERFORMED
==================================================

=== SKIPPED (ALREADY EXISTS) - 2025-10-14 22:27:41 ===
File index: 009095
Input file: /data/retarget/locomotion/raw/AMASS_SMPLXG/GRAB/s1/mug_drink_4_stageii.npz
Output file: ../robot/ik_based/pkl/009095.pkl
Status: SKIPPED (ALREADY EXISTS) - NO PROCESSING PERFORMED
==================================================

=== SKIPPED (ALREADY EXISTS) - 2025-10-14 22:27:41 ===
File index: 009096
Input file: /data/retarget/locomotion/raw/AMASS_SMPLXG/GRAB/s1/mug_offhand_1_stageii.npz
Output file: ../robot/ik_based/pkl/009096.pkl
Status: SKIPPED (ALREADY EXISTS) - NO PROCESSING PERFORMED
==================================================

=== SKIPPED (ALREADY EXISTS) - 2025-10-14 22:27:41 ===
File index: 009097
Input file: /data/retarget/locomotion/raw/AMASS_SMPLXG/GRAB/s1/mug_pass_1_stageii.npz
Output file: ../robot/ik_based/pkl/009097.pkl
Status: SKIPPED (ALREADY EXISTS) - NO PROCESSING PERFORMED
==================================================

=== SKIPPED (ALREADY EXISTS) - 2025-10-14 22:27:41 ===
File index: 009098
Input file: /data/retarget/locomotion/raw/AMASS_SMPLXG/GRAB/s1/mug_pick_all_stageii.npz
Output file: ../robot/ik_based/pkl/009098.pkl
Status: SKIPPED (ALREADY EXISTS) - NO PROCESSING PERFORMED
==================================================

=== SKIPPED (ALREADY EXISTS) - 2025-10-14 22:27:41 ===
File index: 009099
Input file: /data/retarget/locomotion/raw/AMASS_SMPLXG/GRAB/s1/mug_toast_1_stageii.npz
Output file: ../robot/ik_based/pkl/009099.pkl
Status: SKIPPED (ALREADY EXISTS) - NO PROCESSING PERFORMED
==================================================

=== SKIPPED (ALREADY EXISTS) - 2025-10-14 22:27:41 ===
File index: 009100
Input file: /data/retarget/locomotion/raw/AMASS_SMPLXG/GRAB/s1/phone_call_1_stageii.npz
Output file: ../robot/ik_based/pkl/009100.pkl
Status: SKIPPED (ALREADY EXISTS) - NO PROCESSING PERFORMED
==================================================

=== SKIPPED (ALREADY EXISTS) - 2025-10-14 22:27:41 ===
File index: 009101
Input file: /data/retarget/locomotion/raw/AMASS_SMPLXG/GRAB/s1/phone_offhand_1_stageii.npz
Output file: ../robot/ik_based/pkl/009101.pkl
Status: SKIPPED (ALREADY EXISTS) - NO PROCESSING PERFORMED
==================================================

=== SKIPPED (ALREADY EXISTS) - 2025-10-14 22:27:41 ===
File index: 009102
Input file: /data/retarget/locomotion/raw/AMASS_SMPLXG/GRAB/s1/phone_pass_1_stageii.npz
Output file: ../robot/ik_based/pkl/009102.pkl
Status: SKIPPED (ALREADY EXISTS) - NO PROCESSING PERFORMED
==================================================

=== SKIPPED (ALREADY EXISTS) - 2025-10-14 22:27:41 ===
File index: 009103
Input file: /data/retarget/locomotion/raw/AMASS_SMPLXG/GRAB/s1/phone_pick_all_stageii.npz
Output file: ../robot/ik_based/pkl/009103.pkl
Status: SKIPPED (ALREADY EXISTS) - NO PROCESSING PERFORMED
==================================================

=== SKIPPED (ALREADY EXISTS) - 2025-10-14 22:27:41 ===
File index: 009104
Input file: /data/retarget/locomotion/raw/AMASS_SMPLXG/GRAB/s1/piggybank_offhand_1_stageii.npz
Output file: ../robot/ik_based/pkl/009104.pkl
Status: SKIPPED (ALREADY EXISTS) - NO PROCESSING PERFORMED
==================================================

=== SKIPPED (ALREADY EXISTS) - 2025-10-14 22:27:41 ===
File index: 009105
Input file: /data/retarget/locomotion/raw/AMASS_SMPLXG/GRAB/s1/piggybank_pass_1_stageii.npz
Output file: ../robot/ik_based/pkl/009105.pkl
Status: SKIPPED (ALREADY EXISTS) - NO PROCESSING PERFORMED
==================================================

=== SKIPPED (ALREADY EXISTS) - 2025-10-14 22:27:41 ===
File index: 009106
Input file: /data/retarget/locomotion/raw/AMASS_SMPLXG/GRAB/s1/piggybank_pick_all_stageii.npz
Output file: ../robot/ik_based/pkl/009106.pkl
Status: SKIPPED (ALREADY EXISTS) - NO PROCESSING PERFORMED
==================================================

=== SKIPPED (ALREADY EXISTS) - 2025-10-14 22:27:41 ===
File index: 009107
Input file: /data/retarget/locomotion/raw/AMASS_SMPLXG/GRAB/s1/piggybank_use_1_stageii.npz
Output file: ../robot/ik_based/pkl/009107.pkl
Status: SKIPPED (ALREADY EXISTS) - NO PROCESSING PERFORMED
==================================================

=== SKIPPED (ALREADY EXISTS) - 2025-10-14 22:27:41 ===
File index: 009108
Input file: /data/retarget/locomotion/raw/AMASS_SMPLXG/GRAB/s1/pyramidlarge_inspect_1_stageii.npz
Output file: ../robot/ik_based/pkl/009108.pkl
Status: SKIPPED (ALREADY EXISTS) - NO PROCESSING PERFORMED
==================================================

=== SKIPPED (ALREADY EXISTS) - 2025-10-14 22:27:41 ===
File index: 009109
Input file: /data/retarget/locomotion/raw/AMASS_SMPLXG/GRAB/s1/pyramidlarge_offhand_1_stageii.npz
Output file: ../robot/ik_based/pkl/009109.pkl
Status: SKIPPED (ALREADY EXISTS) - NO PROCESSING PERFORMED
==================================================

=== SKIPPED (ALREADY EXISTS) - 2025-10-14 22:27:41 ===
File index: 009110
Input file: /data/retarget/locomotion/raw/AMASS_SMPLXG/GRAB/s1/pyramidlarge_pass_1_stageii.npz
Output file: ../robot/ik_based/pkl/009110.pkl
Status: SKIPPED (ALREADY EXISTS) - NO PROCESSING PERFORMED
==================================================

=== SKIPPED (ALREADY EXISTS) - 2025-10-14 22:27:41 ===
File index: 009111
Input file: /data/retarget/locomotion/raw/AMASS_SMPLXG/GRAB/s1/pyramidlarge_pick_all_stageii.npz
Output file: ../robot/ik_based/pkl/009111.pkl
Status: SKIPPED (ALREADY EXISTS) - NO PROCESSING PERFORMED
==================================================

=== SKIPPED (ALREADY EXISTS) - 2025-10-14 22:27:42 ===
File index: 009112
Input file: /data/retarget/locomotion/raw/AMASS_SMPLXG/GRAB/s1/pyramidmedium_inspect_1_stageii.npz
Output file: ../robot/ik_based/pkl/009112.pkl
Status: SKIPPED (ALREADY EXISTS) - NO PROCESSING PERFORMED
==================================================

=== SKIPPED (ALREADY EXISTS) - 2025-10-14 22:27:42 ===
File index: 009113
Input file: /data/retarget/locomotion/raw/AMASS_SMPLXG/GRAB/s1/pyramidmedium_offhand_1_stageii.npz
Output file: ../robot/ik_based/pkl/009113.pkl
Status: SKIPPED (ALREADY EXISTS) - NO PROCESSING PERFORMED
==================================================

=== SKIPPED (ALREADY EXISTS) - 2025-10-14 22:27:42 ===
File index: 009114
Input file: /data/retarget/locomotion/raw/AMASS_SMPLXG/GRAB/s1/pyramidmedium_pass_1_stageii.npz
Output file: ../robot/ik_based/pkl/009114.pkl
Status: SKIPPED (ALREADY EXISTS) - NO PROCESSING PERFORMED
==================================================

=== SKIPPED (ALREADY EXISTS) - 2025-10-14 22:27:42 ===
File index: 009115
Input file: /data/retarget/locomotion/raw/AMASS_SMPLXG/GRAB/s1/pyramidmedium_pick_all_stageii.npz
Output file: ../robot/ik_based/pkl/009115.pkl
Status: SKIPPED (ALREADY EXISTS) - NO PROCESSING PERFORMED
==================================================

=== SKIPPED (ALREADY EXISTS) - 2025-10-14 22:27:42 ===
File index: 009116
Input file: /data/retarget/locomotion/raw/AMASS_SMPLXG/GRAB/s1/pyramidsmall_inspect_1_stageii.npz
Output file: ../robot/ik_based/pkl/009116.pkl
Status: SKIPPED (ALREADY EXISTS) - NO PROCESSING PERFORMED
==================================================

=== SKIPPED (ALREADY EXISTS) - 2025-10-14 22:27:42 ===
File index: 009117
Input file: /data/retarget/locomotion/raw/AMASS_SMPLXG/GRAB/s1/pyramidsmall_pass_1_stageii.npz
Output file: ../robot/ik_based/pkl/009117.pkl
Status: SKIPPED (ALREADY EXISTS) - NO PROCESSING PERFORMED
==================================================

=== SKIPPED (ALREADY EXISTS) - 2025-10-14 22:27:42 ===
File index: 009118
Input file: /data/retarget/locomotion/raw/AMASS_SMPLXG/GRAB/s1/scissors_offhand_1_stageii.npz
Output file: ../robot/ik_based/pkl/009118.pkl
Status: SKIPPED (ALREADY EXISTS) - NO PROCESSING PERFORMED
==================================================

=== SKIPPED (ALREADY EXISTS) - 2025-10-14 22:27:42 ===
File index: 009119
Input file: /data/retarget/locomotion/raw/AMASS_SMPLXG/GRAB/s1/scissors_pass_1_stageii.npz
Output file: ../robot/ik_based/pkl/009119.pkl
Status: SKIPPED (ALREADY EXISTS) - NO PROCESSING PERFORMED
==================================================

=== SKIPPED (ALREADY EXISTS) - 2025-10-14 22:27:42 ===
File index: 009120
Input file: /data/retarget/locomotion/raw/AMASS_SMPLXG/GRAB/s1/scissors_use_2_stageii.npz
Output file: ../robot/ik_based/pkl/009120.pkl
Status: SKIPPED (ALREADY EXISTS) - NO PROCESSING PERFORMED
==================================================

=== SKIPPED (ALREADY EXISTS) - 2025-10-14 22:27:42 ===
File index: 009121
Input file: /data/retarget/locomotion/raw/AMASS_SMPLXG/GRAB/s1/spherelarge_inspect_1_stageii.npz
Output file: ../robot/ik_based/pkl/009121.pkl
Status: SKIPPED (ALREADY EXISTS) - NO PROCESSING PERFORMED
==================================================

=== SKIPPED (ALREADY EXISTS) - 2025-10-14 22:27:42 ===
File index: 009122
Input file: /data/retarget/locomotion/raw/AMASS_SMPLXG/GRAB/s1/spherelarge_offhand_1_stageii.npz
Output file: ../robot/ik_based/pkl/009122.pkl
Status: SKIPPED (ALREADY EXISTS) - NO PROCESSING PERFORMED
==================================================

=== SKIPPED (ALREADY EXISTS) - 2025-10-14 22:27:42 ===
File index: 009123
Input file: /data/retarget/locomotion/raw/AMASS_SMPLXG/GRAB/s1/spherelarge_pass_1_stageii.npz
Output file: ../robot/ik_based/pkl/009123.pkl
Status: SKIPPED (ALREADY EXISTS) - NO PROCESSING PERFORMED
==================================================

=== SKIPPED (ALREADY EXISTS) - 2025-10-14 22:27:42 ===
File index: 009124
Input file: /data/retarget/locomotion/raw/AMASS_SMPLXG/GRAB/s1/spherelarge_pick_all_stageii.npz
Output file: ../robot/ik_based/pkl/009124.pkl
Status: SKIPPED (ALREADY EXISTS) - NO PROCESSING PERFORMED
==================================================

=== SKIPPED (ALREADY EXISTS) - 2025-10-14 22:27:42 ===
File index: 009125
Input file: /data/retarget/locomotion/raw/AMASS_SMPLXG/GRAB/s1/spheremedium_inspect_1_stageii.npz
Output file: ../robot/ik_based/pkl/009125.pkl
Status: SKIPPED (ALREADY EXISTS) - NO PROCESSING PERFORMED
==================================================

=== SKIPPED (ALREADY EXISTS) - 2025-10-14 22:27:42 ===
File index: 009126
Input file: /data/retarget/locomotion/raw/AMASS_SMPLXG/GRAB/s1/spheremedium_offhand_1_stageii.npz
Output file: ../robot/ik_based/pkl/009126.pkl
Status: SKIPPED (ALREADY EXISTS) - NO PROCESSING PERFORMED
==================================================

=== SKIPPED (ALREADY EXISTS) - 2025-10-14 22:27:42 ===
File index: 009127
Input file: /data/retarget/locomotion/raw/AMASS_SMPLXG/GRAB/s1/spheremedium_pass_1_stageii.npz
Output file: ../robot/ik_based/pkl/009127.pkl
Status: SKIPPED (ALREADY EXISTS) - NO PROCESSING PERFORMED
==================================================

=== SKIPPED (ALREADY EXISTS) - 2025-10-14 22:27:42 ===
File index: 009128
Input file: /data/retarget/locomotion/raw/AMASS_SMPLXG/GRAB/s1/spheremedium_pick_all_stageii.npz
Output file: ../robot/ik_based/pkl/009128.pkl
Status: SKIPPED (ALREADY EXISTS) - NO PROCESSING PERFORMED
==================================================

=== SKIPPED (ALREADY EXISTS) - 2025-10-14 22:27:42 ===
File index: 009129
Input file: /data/retarget/locomotion/raw/AMASS_SMPLXG/GRAB/s1/spheresmall_inspect_1_stageii.npz
Output file: ../robot/ik_based/pkl/009129.pkl
Status: SKIPPED (ALREADY EXISTS) - NO PROCESSING PERFORMED
==================================================

=== SKIPPED (ALREADY EXISTS) - 2025-10-14 22:27:42 ===
File index: 009130
Input file: /data/retarget/locomotion/raw/AMASS_SMPLXG/GRAB/s1/spheresmall_offhand_1_stageii.npz
Output file: ../robot/ik_based/pkl/009130.pkl
Status: SKIPPED (ALREADY EXISTS) - NO PROCESSING PERFORMED
==================================================

=== SKIPPED (ALREADY EXISTS) - 2025-10-14 22:27:42 ===
File index: 009131
Input file: /data/retarget/locomotion/raw/AMASS_SMPLXG/GRAB/s1/spheresmall_pass_1_stageii.npz
Output file: ../robot/ik_based/pkl/009131.pkl
Status: SKIPPED (ALREADY EXISTS) - NO PROCESSING PERFORMED
==================================================

=== SKIPPED (ALREADY EXISTS) - 2025-10-14 22:27:42 ===
File index: 009132
Input file: /data/retarget/locomotion/raw/AMASS_SMPLXG/GRAB/s1/spheresmall_pick_all_stageii.npz
Output file: ../robot/ik_based/pkl/009132.pkl
Status: SKIPPED (ALREADY EXISTS) - NO PROCESSING PERFORMED
==================================================

=== SKIPPED (ALREADY EXISTS) - 2025-10-14 22:27:42 ===
File index: 009133
Input file: /data/retarget/locomotion/raw/AMASS_SMPLXG/GRAB/s1/stamp_offhand_1_stageii.npz
Output file: ../robot/ik_based/pkl/009133.pkl
Status: SKIPPED (ALREADY EXISTS) - NO PROCESSING PERFORMED
==================================================

=== SKIPPED (ALREADY EXISTS) - 2025-10-14 22:27:42 ===
File index: 009134
Input file: /data/retarget/locomotion/raw/AMASS_SMPLXG/GRAB/s1/stamp_pass_1_stageii.npz
Output file: ../robot/ik_based/pkl/009134.pkl
Status: SKIPPED (ALREADY EXISTS) - NO PROCESSING PERFORMED
==================================================

=== SKIPPED (ALREADY EXISTS) - 2025-10-14 22:27:42 ===
File index: 009135
Input file: /data/retarget/locomotion/raw/AMASS_SMPLXG/GRAB/s1/stamp_pick_all_stageii.npz
Output file: ../robot/ik_based/pkl/009135.pkl
Status: SKIPPED (ALREADY EXISTS) - NO PROCESSING PERFORMED
==================================================

=== SKIPPED (ALREADY EXISTS) - 2025-10-14 22:27:42 ===
File index: 009136
Input file: /data/retarget/locomotion/raw/AMASS_SMPLXG/GRAB/s1/stamp_stamp_1_stageii.npz
Output file: ../robot/ik_based/pkl/009136.pkl
Status: SKIPPED (ALREADY EXISTS) - NO PROCESSING PERFORMED
==================================================

=== SKIPPED (ALREADY EXISTS) - 2025-10-14 22:27:42 ===
File index: 009137
Input file: /data/retarget/locomotion/raw/AMASS_SMPLXG/GRAB/s1/stanfordbunny_inspect_1_stageii.npz
Output file: ../robot/ik_based/pkl/009137.pkl
Status: SKIPPED (ALREADY EXISTS) - NO PROCESSING PERFORMED
==================================================

=== SKIPPED (ALREADY EXISTS) - 2025-10-14 22:27:42 ===
File index: 009138
Input file: /data/retarget/locomotion/raw/AMASS_SMPLXG/GRAB/s1/stanfordbunny_offhand_1_stageii.npz
Output file: ../robot/ik_based/pkl/009138.pkl
Status: SKIPPED (ALREADY EXISTS) - NO PROCESSING PERFORMED
==================================================

=== SKIPPED (ALREADY EXISTS) - 2025-10-14 22:27:42 ===
File index: 009139
Input file: /data/retarget/locomotion/raw/AMASS_SMPLXG/GRAB/s1/stanfordbunny_pass_1_stageii.npz
Output file: ../robot/ik_based/pkl/009139.pkl
Status: SKIPPED (ALREADY EXISTS) - NO PROCESSING PERFORMED
==================================================

=== SKIPPED (ALREADY EXISTS) - 2025-10-14 22:27:42 ===
File index: 009140
Input file: /data/retarget/locomotion/raw/AMASS_SMPLXG/GRAB/s1/stanfordbunny_pick_all_stageii.npz
Output file: ../robot/ik_based/pkl/009140.pkl
Status: SKIPPED (ALREADY EXISTS) - NO PROCESSING PERFORMED
==================================================

=== SKIPPED (ALREADY EXISTS) - 2025-10-14 22:27:42 ===
File index: 009141
Input file: /data/retarget/locomotion/raw/AMASS_SMPLXG/GRAB/s1/stapler_offhand_1_stageii.npz
Output file: ../robot/ik_based/pkl/009141.pkl
Status: SKIPPED (ALREADY EXISTS) - NO PROCESSING PERFORMED
==================================================

=== SKIPPED (ALREADY EXISTS) - 2025-10-14 22:27:42 ===
File index: 009142
Input file: /data/retarget/locomotion/raw/AMASS_SMPLXG/GRAB/s1/stapler_pass_1_stageii.npz
Output file: ../robot/ik_based/pkl/009142.pkl
Status: SKIPPED (ALREADY EXISTS) - NO PROCESSING PERFORMED
==================================================

=== SKIPPED (ALREADY EXISTS) - 2025-10-14 22:27:42 ===
File index: 009143
Input file: /data/retarget/locomotion/raw/AMASS_SMPLXG/GRAB/s1/stapler_pick_all_stageii.npz
Output file: ../robot/ik_based/pkl/009143.pkl
Status: SKIPPED (ALREADY EXISTS) - NO PROCESSING PERFORMED
==================================================

=== SKIPPED (ALREADY EXISTS) - 2025-10-14 22:27:42 ===
File index: 009144
Input file: /data/retarget/locomotion/raw/AMASS_SMPLXG/GRAB/s1/stapler_staple_1_stageii.npz
Output file: ../robot/ik_based/pkl/009144.pkl
Status: SKIPPED (ALREADY EXISTS) - NO PROCESSING PERFORMED
==================================================

=== SKIPPED (ALREADY EXISTS) - 2025-10-14 22:27:42 ===
File index: 009145
Input file: /data/retarget/locomotion/raw/AMASS_SMPLXG/GRAB/s1/stapler_staple_2_stageii.npz
Output file: ../robot/ik_based/pkl/009145.pkl
Status: SKIPPED (ALREADY EXISTS) - NO PROCESSING PERFORMED
==================================================

=== SKIPPED (ALREADY EXISTS) - 2025-10-14 22:27:42 ===
File index: 009146
Input file: /data/retarget/locomotion/raw/AMASS_SMPLXG/GRAB/s1/teapot_pass_1_stageii.npz
Output file: ../robot/ik_based/pkl/009146.pkl
Status: SKIPPED (ALREADY EXISTS) - NO PROCESSING PERFORMED
==================================================

=== SKIPPED (ALREADY EXISTS) - 2025-10-14 22:27:42 ===
File index: 009147
Input file: /data/retarget/locomotion/raw/AMASS_SMPLXG/GRAB/s1/teapot_pour_1_stageii.npz
Output file: ../robot/ik_based/pkl/009147.pkl
Status: SKIPPED (ALREADY EXISTS) - NO PROCESSING PERFORMED
==================================================

=== SKIPPED (ALREADY EXISTS) - 2025-10-14 22:27:42 ===
File index: 009148
Input file: /data/retarget/locomotion/raw/AMASS_SMPLXG/GRAB/s1/toothbrush_pick_all_stageii.npz
Output file: ../robot/ik_based/pkl/009148.pkl
Status: SKIPPED (ALREADY EXISTS) - NO PROCESSING PERFORMED
==================================================

=== SKIPPED (ALREADY EXISTS) - 2025-10-14 22:27:42 ===
File index: 009149
Input file: /data/retarget/locomotion/raw/AMASS_SMPLXG/GRAB/s1/toothpaste_pass_1_stageii.npz
Output file: ../robot/ik_based/pkl/009149.pkl
Status: SKIPPED (ALREADY EXISTS) - NO PROCESSING PERFORMED
==================================================

=== SKIPPED (ALREADY EXISTS) - 2025-10-14 22:27:42 ===
File index: 009150
Input file: /data/retarget/locomotion/raw/AMASS_SMPLXG/GRAB/s1/toothpaste_pick_all_stageii.npz
Output file: ../robot/ik_based/pkl/009150.pkl
Status: SKIPPED (ALREADY EXISTS) - NO PROCESSING PERFORMED
==================================================

=== SKIPPED (ALREADY EXISTS) - 2025-10-14 22:27:42 ===
File index: 009151
Input file: /data/retarget/locomotion/raw/AMASS_SMPLXG/GRAB/s1/toothpaste_squeeze_1_stageii.npz
Output file: ../robot/ik_based/pkl/009151.pkl
Status: SKIPPED (ALREADY EXISTS) - NO PROCESSING PERFORMED
==================================================

=== SKIPPED (ALREADY EXISTS) - 2025-10-14 22:27:42 ===
File index: 009152
Input file: /data/retarget/locomotion/raw/AMASS_SMPLXG/GRAB/s1/toruslarge_inspect_1_stageii.npz
Output file: ../robot/ik_based/pkl/009152.pkl
Status: SKIPPED (ALREADY EXISTS) - NO PROCESSING PERFORMED
==================================================

=== SKIPPED (ALREADY EXISTS) - 2025-10-14 22:27:42 ===
File index: 009153
Input file: /data/retarget/locomotion/raw/AMASS_SMPLXG/GRAB/s1/toruslarge_pass_1_stageii.npz
Output file: ../robot/ik_based/pkl/009153.pkl
Status: SKIPPED (ALREADY EXISTS) - NO PROCESSING PERFORMED
==================================================

=== SKIPPED (ALREADY EXISTS) - 2025-10-14 22:27:42 ===
File index: 009154
Input file: /data/retarget/locomotion/raw/AMASS_SMPLXG/GRAB/s1/toruslarge_pick_all_stageii.npz
Output file: ../robot/ik_based/pkl/009154.pkl
Status: SKIPPED (ALREADY EXISTS) - NO PROCESSING PERFORMED
==================================================

=== SKIPPED (ALREADY EXISTS) - 2025-10-14 22:27:42 ===
File index: 009155
Input file: /data/retarget/locomotion/raw/AMASS_SMPLXG/GRAB/s1/torusmedium_inspect_1_stageii.npz
Output file: ../robot/ik_based/pkl/009155.pkl
Status: SKIPPED (ALREADY EXISTS) - NO PROCESSING PERFORMED
==================================================

=== SKIPPED (ALREADY EXISTS) - 2025-10-14 22:27:42 ===
File index: 009156
Input file: /data/retarget/locomotion/raw/AMASS_SMPLXG/GRAB/s1/torusmedium_offhand_1_stageii.npz
Output file: ../robot/ik_based/pkl/009156.pkl
Status: SKIPPED (ALREADY EXISTS) - NO PROCESSING PERFORMED
==================================================

=== SKIPPED (ALREADY EXISTS) - 2025-10-14 22:27:42 ===
File index: 009157
Input file: /data/retarget/locomotion/raw/AMASS_SMPLXG/GRAB/s1/torusmedium_pass_1_stageii.npz
Output file: ../robot/ik_based/pkl/009157.pkl
Status: SKIPPED (ALREADY EXISTS) - NO PROCESSING PERFORMED
==================================================

=== SKIPPED (ALREADY EXISTS) - 2025-10-14 22:27:42 ===
File index: 009158
Input file: /data/retarget/locomotion/raw/AMASS_SMPLXG/GRAB/s1/torusmedium_pick_all_stageii.npz
Output file: ../robot/ik_based/pkl/009158.pkl
Status: SKIPPED (ALREADY EXISTS) - NO PROCESSING PERFORMED
==================================================

=== SKIPPED (ALREADY EXISTS) - 2025-10-14 22:27:42 ===
File index: 009159
Input file: /data/retarget/locomotion/raw/AMASS_SMPLXG/GRAB/s1/torussmall_inspect_1_stageii.npz
Output file: ../robot/ik_based/pkl/009159.pkl
Status: SKIPPED (ALREADY EXISTS) - NO PROCESSING PERFORMED
==================================================

=== SKIPPED (ALREADY EXISTS) - 2025-10-14 22:27:42 ===
File index: 009160
Input file: /data/retarget/locomotion/raw/AMASS_SMPLXG/GRAB/s1/torussmall_offhand_1_stageii.npz
Output file: ../robot/ik_based/pkl/009160.pkl
Status: SKIPPED (ALREADY EXISTS) - NO PROCESSING PERFORMED
==================================================

=== SKIPPED (ALREADY EXISTS) - 2025-10-14 22:27:42 ===
File index: 009161
Input file: /data/retarget/locomotion/raw/AMASS_SMPLXG/GRAB/s1/torussmall_pass_1_stageii.npz
Output file: ../robot/ik_based/pkl/009161.pkl
Status: SKIPPED (ALREADY EXISTS) - NO PROCESSING PERFORMED
==================================================

=== SKIPPED (ALREADY EXISTS) - 2025-10-14 22:27:42 ===
File index: 009162
Input file: /data/retarget/locomotion/raw/AMASS_SMPLXG/GRAB/s1/torussmall_pick_all_stageii.npz
Output file: ../robot/ik_based/pkl/009162.pkl
Status: SKIPPED (ALREADY EXISTS) - NO PROCESSING PERFORMED
==================================================

=== SKIPPED (ALREADY EXISTS) - 2025-10-14 22:27:42 ===
File index: 009163
Input file: /data/retarget/locomotion/raw/AMASS_SMPLXG/GRAB/s1/train_offhand_1_stageii.npz
Output file: ../robot/ik_based/pkl/009163.pkl
Status: SKIPPED (ALREADY EXISTS) - NO PROCESSING PERFORMED
==================================================

=== SKIPPED (ALREADY EXISTS) - 2025-10-14 22:27:42 ===
File index: 009164
Input file: /data/retarget/locomotion/raw/AMASS_SMPLXG/GRAB/s1/train_play_1_stageii.npz
Output file: ../robot/ik_based/pkl/009164.pkl
Status: SKIPPED (ALREADY EXISTS) - NO PROCESSING PERFORMED
==================================================

=== SKIPPED (ALREADY EXISTS) - 2025-10-14 22:27:42 ===
File index: 009165
Input file: /data/retarget/locomotion/raw/AMASS_SMPLXG/GRAB/s1/watch_offhand_1_stageii.npz
Output file: ../robot/ik_based/pkl/009165.pkl
Status: SKIPPED (ALREADY EXISTS) - NO PROCESSING PERFORMED
==================================================

=== SKIPPED (ALREADY EXISTS) - 2025-10-14 22:27:42 ===
File index: 009166
Input file: /data/retarget/locomotion/raw/AMASS_SMPLXG/GRAB/s1/watch_pass_1_stageii.npz
Output file: ../robot/ik_based/pkl/009166.pkl
Status: SKIPPED (ALREADY EXISTS) - NO PROCESSING PERFORMED
==================================================

=== SKIPPED (ALREADY EXISTS) - 2025-10-14 22:27:42 ===
File index: 009167
Input file: /data/retarget/locomotion/raw/AMASS_SMPLXG/GRAB/s1/watch_pick_all_stageii.npz
Output file: ../robot/ik_based/pkl/009167.pkl
Status: SKIPPED (ALREADY EXISTS) - NO PROCESSING PERFORMED
==================================================

=== SKIPPED (ALREADY EXISTS) - 2025-10-14 22:27:42 ===
File index: 009168
Input file: /data/retarget/locomotion/raw/AMASS_SMPLXG/GRAB/s1/watch_set_1_stageii.npz
Output file: ../robot/ik_based/pkl/009168.pkl
Status: SKIPPED (ALREADY EXISTS) - NO PROCESSING PERFORMED
==================================================

=== SKIPPED (ALREADY EXISTS) - 2025-10-14 22:27:42 ===
File index: 009169
Input file: /data/retarget/locomotion/raw/AMASS_SMPLXG/GRAB/s1/watch_set_2_stageii.npz
Output file: ../robot/ik_based/pkl/009169.pkl
Status: SKIPPED (ALREADY EXISTS) - NO PROCESSING PERFORMED
==================================================

=== SKIPPED (ALREADY EXISTS) - 2025-10-14 22:27:42 ===
File index: 009170
Input file: /data/retarget/locomotion/raw/AMASS_SMPLXG/GRAB/s1/waterbottle_drink_1_stageii.npz
Output file: ../robot/ik_based/pkl/009170.pkl
Status: SKIPPED (ALREADY EXISTS) - NO PROCESSING PERFORMED
==================================================

=== SKIPPED (ALREADY EXISTS) - 2025-10-14 22:27:42 ===
File index: 009171
Input file: /data/retarget/locomotion/raw/AMASS_SMPLXG/GRAB/s1/waterbottle_offhand_1_stageii.npz
Output file: ../robot/ik_based/pkl/009171.pkl
Status: SKIPPED (ALREADY EXISTS) - NO PROCESSING PERFORMED
==================================================

=== SKIPPED (ALREADY EXISTS) - 2025-10-14 22:27:42 ===
File index: 009172
Input file: /data/retarget/locomotion/raw/AMASS_SMPLXG/GRAB/s1/waterbottle_open_1_stageii.npz
Output file: ../robot/ik_based/pkl/009172.pkl
Status: SKIPPED (ALREADY EXISTS) - NO PROCESSING PERFORMED
==================================================

=== SKIPPED (ALREADY EXISTS) - 2025-10-14 22:27:42 ===
File index: 009173
Input file: /data/retarget/locomotion/raw/AMASS_SMPLXG/GRAB/s1/waterbottle_pass_1_stageii.npz
Output file: ../robot/ik_based/pkl/009173.pkl
Status: SKIPPED (ALREADY EXISTS) - NO PROCESSING PERFORMED
==================================================

=== SKIPPED (ALREADY EXISTS) - 2025-10-14 22:27:42 ===
File index: 009174
Input file: /data/retarget/locomotion/raw/AMASS_SMPLXG/GRAB/s1/waterbottle_pick_all_stageii.npz
Output file: ../robot/ik_based/pkl/009174.pkl
Status: SKIPPED (ALREADY EXISTS) - NO PROCESSING PERFORMED
==================================================

=== SKIPPED (ALREADY EXISTS) - 2025-10-14 22:27:42 ===
File index: 009175
Input file: /data/retarget/locomotion/raw/AMASS_SMPLXG/GRAB/s1/waterbottle_pour_1_stageii.npz
Output file: ../robot/ik_based/pkl/009175.pkl
Status: SKIPPED (ALREADY EXISTS) - NO PROCESSING PERFORMED
==================================================

=== SKIPPED (ALREADY EXISTS) - 2025-10-14 22:27:42 ===
File index: 009176
Input file: /data/retarget/locomotion/raw/AMASS_SMPLXG/GRAB/s1/wineglass_drink_2_stageii.npz
Output file: ../robot/ik_based/pkl/009176.pkl
Status: SKIPPED (ALREADY EXISTS) - NO PROCESSING PERFORMED
==================================================

=== SKIPPED (ALREADY EXISTS) - 2025-10-14 22:27:42 ===
File index: 009177
Input file: /data/retarget/locomotion/raw/AMASS_SMPLXG/GRAB/s1/wineglass_offhand_1_stageii.npz
Output file: ../robot/ik_based/pkl/009177.pkl
Status: SKIPPED (ALREADY EXISTS) - NO PROCESSING PERFORMED
==================================================

=== SKIPPED (ALREADY EXISTS) - 2025-10-14 22:27:42 ===
File index: 009178
Input file: /data/retarget/locomotion/raw/AMASS_SMPLXG/GRAB/s1/wineglass_pass_1_stageii.npz
Output file: ../robot/ik_based/pkl/009178.pkl
Status: SKIPPED (ALREADY EXISTS) - NO PROCESSING PERFORMED
==================================================

=== SKIPPED (ALREADY EXISTS) - 2025-10-14 22:27:42 ===
File index: 009179
Input file: /data/retarget/locomotion/raw/AMASS_SMPLXG/GRAB/s1/wineglass_pick_all_stageii.npz
Output file: ../robot/ik_based/pkl/009179.pkl
Status: SKIPPED (ALREADY EXISTS) - NO PROCESSING PERFORMED
==================================================

=== SKIPPED (ALREADY EXISTS) - 2025-10-14 22:27:42 ===
File index: 009180
Input file: /data/retarget/locomotion/raw/AMASS_SMPLXG/GRAB/s1/wineglass_toast_1_stageii.npz
Output file: ../robot/ik_based/pkl/009180.pkl
Status: SKIPPED (ALREADY EXISTS) - NO PROCESSING PERFORMED
==================================================

=== SKIPPED (ALREADY EXISTS) - 2025-10-14 22:27:42 ===
File index: 009181
Input file: /data/retarget/locomotion/raw/AMASS_SMPLXG/GRAB/s10/airplane_fly_1_stageii.npz
Output file: ../robot/ik_based/pkl/009181.pkl
Status: SKIPPED (ALREADY EXISTS) - NO PROCESSING PERFORMED
==================================================

=== SKIPPED (ALREADY EXISTS) - 2025-10-14 22:27:42 ===
File index: 009182
Input file: /data/retarget/locomotion/raw/AMASS_SMPLXG/GRAB/s10/airplane_pass_1_stageii.npz
Output file: ../robot/ik_based/pkl/009182.pkl
Status: SKIPPED (ALREADY EXISTS) - NO PROCESSING PERFORMED
==================================================

=== SKIPPED (ALREADY EXISTS) - 2025-10-14 22:27:42 ===
File index: 009183
Input file: /data/retarget/locomotion/raw/AMASS_SMPLXG/GRAB/s10/airplane_pick_all_stageii.npz
Output file: ../robot/ik_based/pkl/009183.pkl
Status: SKIPPED (ALREADY EXISTS) - NO PROCESSING PERFORMED
==================================================

=== SKIPPED (ALREADY EXISTS) - 2025-10-14 22:27:42 ===
File index: 009184
Input file: /data/retarget/locomotion/raw/AMASS_SMPLXG/GRAB/s10/alarmclock_pass_1_stageii.npz
Output file: ../robot/ik_based/pkl/009184.pkl
Status: SKIPPED (ALREADY EXISTS) - NO PROCESSING PERFORMED
==================================================

=== SKIPPED (ALREADY EXISTS) - 2025-10-14 22:27:42 ===
File index: 009185
Input file: /data/retarget/locomotion/raw/AMASS_SMPLXG/GRAB/s10/alarmclock_pick_all_Retake_stageii.npz
Output file: ../robot/ik_based/pkl/009185.pkl
Status: SKIPPED (ALREADY EXISTS) - NO PROCESSING PERFORMED
==================================================

=== SKIPPED (ALREADY EXISTS) - 2025-10-14 22:27:42 ===
File index: 009186
Input file: /data/retarget/locomotion/raw/AMASS_SMPLXG/GRAB/s10/alarmclock_see_1_stageii.npz
Output file: ../robot/ik_based/pkl/009186.pkl
Status: SKIPPED (ALREADY EXISTS) - NO PROCESSING PERFORMED
==================================================

=== SKIPPED (ALREADY EXISTS) - 2025-10-14 22:27:42 ===
File index: 009187
Input file: /data/retarget/locomotion/raw/AMASS_SMPLXG/GRAB/s10/apple_eat_1_stageii.npz
Output file: ../robot/ik_based/pkl/009187.pkl
Status: SKIPPED (ALREADY EXISTS) - NO PROCESSING PERFORMED
==================================================

=== SKIPPED (ALREADY EXISTS) - 2025-10-14 22:27:42 ===
File index: 009188
Input file: /data/retarget/locomotion/raw/AMASS_SMPLXG/GRAB/s10/apple_pass_1_stageii.npz
Output file: ../robot/ik_based/pkl/009188.pkl
Status: SKIPPED (ALREADY EXISTS) - NO PROCESSING PERFORMED
==================================================

=== SKIPPED (ALREADY EXISTS) - 2025-10-14 22:27:42 ===
File index: 009189
Input file: /data/retarget/locomotion/raw/AMASS_SMPLXG/GRAB/s10/banana_eat_1_stageii.npz
Output file: ../robot/ik_based/pkl/009189.pkl
Status: SKIPPED (ALREADY EXISTS) - NO PROCESSING PERFORMED
==================================================

=== SKIPPED (ALREADY EXISTS) - 2025-10-14 22:27:42 ===
File index: 009190
Input file: /data/retarget/locomotion/raw/AMASS_SMPLXG/GRAB/s10/banana_pass_1_stageii.npz
Output file: ../robot/ik_based/pkl/009190.pkl
Status: SKIPPED (ALREADY EXISTS) - NO PROCESSING PERFORMED
==================================================

=== SKIPPED (ALREADY EXISTS) - 2025-10-14 22:27:42 ===
File index: 009191
Input file: /data/retarget/locomotion/raw/AMASS_SMPLXG/GRAB/s10/banana_peel_1_stageii.npz
Output file: ../robot/ik_based/pkl/009191.pkl
Status: SKIPPED (ALREADY EXISTS) - NO PROCESSING PERFORMED
==================================================

=== SKIPPED (ALREADY EXISTS) - 2025-10-14 22:27:42 ===
File index: 009192
Input file: /data/retarget/locomotion/raw/AMASS_SMPLXG/GRAB/s10/banana_peel_2_stageii.npz
Output file: ../robot/ik_based/pkl/009192.pkl
Status: SKIPPED (ALREADY EXISTS) - NO PROCESSING PERFORMED
==================================================

=== SKIPPED (ALREADY EXISTS) - 2025-10-14 22:27:42 ===
File index: 009193
Input file: /data/retarget/locomotion/raw/AMASS_SMPLXG/GRAB/s10/banana_pick_all_stageii.npz
Output file: ../robot/ik_based/pkl/009193.pkl
Status: SKIPPED (ALREADY EXISTS) - NO PROCESSING PERFORMED
==================================================

=== SKIPPED (ALREADY EXISTS) - 2025-10-14 22:27:42 ===
File index: 009194
Input file: /data/retarget/locomotion/raw/AMASS_SMPLXG/GRAB/s10/binoculars_pass_1_stageii.npz
Output file: ../robot/ik_based/pkl/009194.pkl
Status: SKIPPED (ALREADY EXISTS) - NO PROCESSING PERFORMED
==================================================

=== SKIPPED (ALREADY EXISTS) - 2025-10-14 22:27:42 ===
File index: 009195
Input file: /data/retarget/locomotion/raw/AMASS_SMPLXG/GRAB/s10/binoculars_pick_all_stageii.npz
Output file: ../robot/ik_based/pkl/009195.pkl
Status: SKIPPED (ALREADY EXISTS) - NO PROCESSING PERFORMED
==================================================

=== SKIPPED (ALREADY EXISTS) - 2025-10-14 22:27:42 ===
File index: 009196
Input file: /data/retarget/locomotion/raw/AMASS_SMPLXG/GRAB/s10/binoculars_see_1_stageii.npz
Output file: ../robot/ik_based/pkl/009196.pkl
Status: SKIPPED (ALREADY EXISTS) - NO PROCESSING PERFORMED
==================================================

=== SKIPPED (ALREADY EXISTS) - 2025-10-14 22:27:42 ===
File index: 009197
Input file: /data/retarget/locomotion/raw/AMASS_SMPLXG/GRAB/s10/bowl_drink_1_Retake_stageii.npz
Output file: ../robot/ik_based/pkl/009197.pkl
Status: SKIPPED (ALREADY EXISTS) - NO PROCESSING PERFORMED
==================================================

=== SKIPPED (ALREADY EXISTS) - 2025-10-14 22:27:42 ===
File index: 009198
Input file: /data/retarget/locomotion/raw/AMASS_SMPLXG/GRAB/s10/bowl_drink_2_stageii.npz
Output file: ../robot/ik_based/pkl/009198.pkl
Status: SKIPPED (ALREADY EXISTS) - NO PROCESSING PERFORMED
==================================================

=== SKIPPED (ALREADY EXISTS) - 2025-10-14 22:27:42 ===
File index: 009199
Input file: /data/retarget/locomotion/raw/AMASS_SMPLXG/GRAB/s10/bowl_pass_1_stageii.npz
Output file: ../robot/ik_based/pkl/009199.pkl
Status: SKIPPED (ALREADY EXISTS) - NO PROCESSING PERFORMED
==================================================

=== SKIPPED (ALREADY EXISTS) - 2025-10-14 22:27:42 ===
File index: 009200
Input file: /data/retarget/locomotion/raw/AMASS_SMPLXG/GRAB/s10/bowl_pick_all_stageii.npz
Output file: ../robot/ik_based/pkl/009200.pkl
Status: SKIPPED (ALREADY EXISTS) - NO PROCESSING PERFORMED
==================================================

=== SKIPPED (ALREADY EXISTS) - 2025-10-14 22:27:42 ===
File index: 009201
Input file: /data/retarget/locomotion/raw/AMASS_SMPLXG/GRAB/s10/camera_browse_1_stageii.npz
Output file: ../robot/ik_based/pkl/009201.pkl
Status: SKIPPED (ALREADY EXISTS) - NO PROCESSING PERFORMED
==================================================

=== SKIPPED (ALREADY EXISTS) - 2025-10-14 22:27:42 ===
File index: 009202
Input file: /data/retarget/locomotion/raw/AMASS_SMPLXG/GRAB/s10/camera_pass_1_stageii.npz
Output file: ../robot/ik_based/pkl/009202.pkl
Status: SKIPPED (ALREADY EXISTS) - NO PROCESSING PERFORMED
==================================================

=== SKIPPED (ALREADY EXISTS) - 2025-10-14 22:27:42 ===
File index: 009203
Input file: /data/retarget/locomotion/raw/AMASS_SMPLXG/GRAB/s10/camera_takepicture_1_stageii.npz
Output file: ../robot/ik_based/pkl/009203.pkl
Status: SKIPPED (ALREADY EXISTS) - NO PROCESSING PERFORMED
==================================================

=== SKIPPED (ALREADY EXISTS) - 2025-10-14 22:27:42 ===
File index: 009204
Input file: /data/retarget/locomotion/raw/AMASS_SMPLXG/GRAB/s10/camera_takepicture_2_stageii.npz
Output file: ../robot/ik_based/pkl/009204.pkl
Status: SKIPPED (ALREADY EXISTS) - NO PROCESSING PERFORMED
==================================================

=== SKIPPED (ALREADY EXISTS) - 2025-10-14 22:27:42 ===
File index: 009205
Input file: /data/retarget/locomotion/raw/AMASS_SMPLXG/GRAB/s10/camera_takepicture_3_stageii.npz
Output file: ../robot/ik_based/pkl/009205.pkl
Status: SKIPPED (ALREADY EXISTS) - NO PROCESSING PERFORMED
==================================================

=== SKIPPED (ALREADY EXISTS) - 2025-10-14 22:27:42 ===
File index: 009206
Input file: /data/retarget/locomotion/raw/AMASS_SMPLXG/GRAB/s10/cubelarge_inspect_1_stageii.npz
Output file: ../robot/ik_based/pkl/009206.pkl
Status: SKIPPED (ALREADY EXISTS) - NO PROCESSING PERFORMED
==================================================

=== SKIPPED (ALREADY EXISTS) - 2025-10-14 22:27:42 ===
File index: 009207
Input file: /data/retarget/locomotion/raw/AMASS_SMPLXG/GRAB/s10/cubelarge_pass_1_stageii.npz
Output file: ../robot/ik_based/pkl/009207.pkl
Status: SKIPPED (ALREADY EXISTS) - NO PROCESSING PERFORMED
==================================================

=== SKIPPED (ALREADY EXISTS) - 2025-10-14 22:27:42 ===
File index: 009208
Input file: /data/retarget/locomotion/raw/AMASS_SMPLXG/GRAB/s10/cubelarge_pick_all_stageii.npz
Output file: ../robot/ik_based/pkl/009208.pkl
Status: SKIPPED (ALREADY EXISTS) - NO PROCESSING PERFORMED
==================================================

=== SKIPPED (ALREADY EXISTS) - 2025-10-14 22:27:42 ===
File index: 009209
Input file: /data/retarget/locomotion/raw/AMASS_SMPLXG/GRAB/s10/cubemedium_inspect_1_stageii.npz
Output file: ../robot/ik_based/pkl/009209.pkl
Status: SKIPPED (ALREADY EXISTS) - NO PROCESSING PERFORMED
==================================================

=== SKIPPED (ALREADY EXISTS) - 2025-10-14 22:27:42 ===
File index: 009210
Input file: /data/retarget/locomotion/raw/AMASS_SMPLXG/GRAB/s10/cubemedium_pass_1_stageii.npz
Output file: ../robot/ik_based/pkl/009210.pkl
Status: SKIPPED (ALREADY EXISTS) - NO PROCESSING PERFORMED
==================================================

=== SKIPPED (ALREADY EXISTS) - 2025-10-14 22:27:42 ===
File index: 009211
Input file: /data/retarget/locomotion/raw/AMASS_SMPLXG/GRAB/s10/cubemedium_pick_all_stageii.npz
Output file: ../robot/ik_based/pkl/009211.pkl
Status: SKIPPED (ALREADY EXISTS) - NO PROCESSING PERFORMED
==================================================

=== SKIPPED (ALREADY EXISTS) - 2025-10-14 22:27:42 ===
File index: 009212
Input file: /data/retarget/locomotion/raw/AMASS_SMPLXG/GRAB/s10/cubesmall_inspect_1_stageii.npz
Output file: ../robot/ik_based/pkl/009212.pkl
Status: SKIPPED (ALREADY EXISTS) - NO PROCESSING PERFORMED
==================================================

=== SKIPPED (ALREADY EXISTS) - 2025-10-14 22:27:42 ===
File index: 009213
Input file: /data/retarget/locomotion/raw/AMASS_SMPLXG/GRAB/s10/cubesmall_pass_1_stageii.npz
Output file: ../robot/ik_based/pkl/009213.pkl
Status: SKIPPED (ALREADY EXISTS) - NO PROCESSING PERFORMED
==================================================

=== SKIPPED (ALREADY EXISTS) - 2025-10-14 22:27:42 ===
File index: 009214
Input file: /data/retarget/locomotion/raw/AMASS_SMPLXG/GRAB/s10/cubesmall_pick_all_stageii.npz
Output file: ../robot/ik_based/pkl/009214.pkl
Status: SKIPPED (ALREADY EXISTS) - NO PROCESSING PERFORMED
==================================================

=== SKIPPED (ALREADY EXISTS) - 2025-10-14 22:27:42 ===
File index: 009215
Input file: /data/retarget/locomotion/raw/AMASS_SMPLXG/GRAB/s10/cup_drink_1_stageii.npz
Output file: ../robot/ik_based/pkl/009215.pkl
Status: SKIPPED (ALREADY EXISTS) - NO PROCESSING PERFORMED
==================================================

=== SKIPPED (ALREADY EXISTS) - 2025-10-14 22:27:42 ===
File index: 009216
Input file: /data/retarget/locomotion/raw/AMASS_SMPLXG/GRAB/s10/cup_drink_2_stageii.npz
Output file: ../robot/ik_based/pkl/009216.pkl
Status: SKIPPED (ALREADY EXISTS) - NO PROCESSING PERFORMED
==================================================

=== SKIPPED (ALREADY EXISTS) - 2025-10-14 22:27:42 ===
File index: 009217
Input file: /data/retarget/locomotion/raw/AMASS_SMPLXG/GRAB/s10/cup_pass_1_stageii.npz
Output file: ../robot/ik_based/pkl/009217.pkl
Status: SKIPPED (ALREADY EXISTS) - NO PROCESSING PERFORMED
==================================================

=== SKIPPED (ALREADY EXISTS) - 2025-10-14 22:27:42 ===
File index: 009218
Input file: /data/retarget/locomotion/raw/AMASS_SMPLXG/GRAB/s10/cup_pick_all_stageii.npz
Output file: ../robot/ik_based/pkl/009218.pkl
Status: SKIPPED (ALREADY EXISTS) - NO PROCESSING PERFORMED
==================================================

=== SKIPPED (ALREADY EXISTS) - 2025-10-14 22:27:42 ===
File index: 009219
Input file: /data/retarget/locomotion/raw/AMASS_SMPLXG/GRAB/s10/cup_pour_1_stageii.npz
Output file: ../robot/ik_based/pkl/009219.pkl
Status: SKIPPED (ALREADY EXISTS) - NO PROCESSING PERFORMED
==================================================

=== SKIPPED (ALREADY EXISTS) - 2025-10-14 22:27:42 ===
File index: 009220
Input file: /data/retarget/locomotion/raw/AMASS_SMPLXG/GRAB/s10/cylinderlarge_inspect_1_stageii.npz
Output file: ../robot/ik_based/pkl/009220.pkl
Status: SKIPPED (ALREADY EXISTS) - NO PROCESSING PERFORMED
==================================================

=== SKIPPED (ALREADY EXISTS) - 2025-10-14 22:27:42 ===
File index: 009221
Input file: /data/retarget/locomotion/raw/AMASS_SMPLXG/GRAB/s10/cylinderlarge_pass_1_stageii.npz
Output file: ../robot/ik_based/pkl/009221.pkl
Status: SKIPPED (ALREADY EXISTS) - NO PROCESSING PERFORMED
==================================================

=== SKIPPED (ALREADY EXISTS) - 2025-10-14 22:27:42 ===
File index: 009222
Input file: /data/retarget/locomotion/raw/AMASS_SMPLXG/GRAB/s10/cylinderlarge_pick_all_stageii.npz
Output file: ../robot/ik_based/pkl/009222.pkl
Status: SKIPPED (ALREADY EXISTS) - NO PROCESSING PERFORMED
==================================================

=== SKIPPED (ALREADY EXISTS) - 2025-10-14 22:27:42 ===
File index: 009223
Input file: /data/retarget/locomotion/raw/AMASS_SMPLXG/GRAB/s10/cylindermedium_inspect_1_stageii.npz
Output file: ../robot/ik_based/pkl/009223.pkl
Status: SKIPPED (ALREADY EXISTS) - NO PROCESSING PERFORMED
==================================================

=== SKIPPED (ALREADY EXISTS) - 2025-10-14 22:27:42 ===
File index: 009224
Input file: /data/retarget/locomotion/raw/AMASS_SMPLXG/GRAB/s10/cylindermedium_pass_1_stageii.npz
Output file: ../robot/ik_based/pkl/009224.pkl
Status: SKIPPED (ALREADY EXISTS) - NO PROCESSING PERFORMED
==================================================

=== SKIPPED (ALREADY EXISTS) - 2025-10-14 22:27:42 ===
File index: 009225
Input file: /data/retarget/locomotion/raw/AMASS_SMPLXG/GRAB/s10/cylindersmall_inspect_1_stageii.npz
Output file: ../robot/ik_based/pkl/009225.pkl
Status: SKIPPED (ALREADY EXISTS) - NO PROCESSING PERFORMED
==================================================

=== SKIPPED (ALREADY EXISTS) - 2025-10-14 22:27:42 ===
File index: 009226
Input file: /data/retarget/locomotion/raw/AMASS_SMPLXG/GRAB/s10/cylindersmall_pass_1_stageii.npz
Output file: ../robot/ik_based/pkl/009226.pkl
Status: SKIPPED (ALREADY EXISTS) - NO PROCESSING PERFORMED
==================================================

=== SKIPPED (ALREADY EXISTS) - 2025-10-14 22:27:42 ===
File index: 009227
Input file: /data/retarget/locomotion/raw/AMASS_SMPLXG/GRAB/s10/doorknob_pick_all_stageii.npz
Output file: ../robot/ik_based/pkl/009227.pkl
Status: SKIPPED (ALREADY EXISTS) - NO PROCESSING PERFORMED
==================================================

=== SKIPPED (ALREADY EXISTS) - 2025-10-14 22:27:42 ===
File index: 009228
Input file: /data/retarget/locomotion/raw/AMASS_SMPLXG/GRAB/s10/doorknob_use_1_stageii.npz
Output file: ../robot/ik_based/pkl/009228.pkl
Status: SKIPPED (ALREADY EXISTS) - NO PROCESSING PERFORMED
==================================================

=== SKIPPED (ALREADY EXISTS) - 2025-10-14 22:27:42 ===
File index: 009229
Input file: /data/retarget/locomotion/raw/AMASS_SMPLXG/GRAB/s10/doorknob_use_2_stageii.npz
Output file: ../robot/ik_based/pkl/009229.pkl
Status: SKIPPED (ALREADY EXISTS) - NO PROCESSING PERFORMED
==================================================

=== SKIPPED (ALREADY EXISTS) - 2025-10-14 22:27:42 ===
File index: 009230
Input file: /data/retarget/locomotion/raw/AMASS_SMPLXG/GRAB/s10/duck_pass_1_stageii.npz
Output file: ../robot/ik_based/pkl/009230.pkl
Status: SKIPPED (ALREADY EXISTS) - NO PROCESSING PERFORMED
==================================================

=== SKIPPED (ALREADY EXISTS) - 2025-10-14 22:27:42 ===
File index: 009231
Input file: /data/retarget/locomotion/raw/AMASS_SMPLXG/GRAB/s10/elephant_inspect_1_stageii.npz
Output file: ../robot/ik_based/pkl/009231.pkl
Status: SKIPPED (ALREADY EXISTS) - NO PROCESSING PERFORMED
==================================================

=== SKIPPED (ALREADY EXISTS) - 2025-10-14 22:27:42 ===
File index: 009232
Input file: /data/retarget/locomotion/raw/AMASS_SMPLXG/GRAB/s10/elephant_pass_1_stageii.npz
Output file: ../robot/ik_based/pkl/009232.pkl
Status: SKIPPED (ALREADY EXISTS) - NO PROCESSING PERFORMED
==================================================

=== SKIPPED (ALREADY EXISTS) - 2025-10-14 22:27:42 ===
File index: 009233
Input file: /data/retarget/locomotion/raw/AMASS_SMPLXG/GRAB/s10/eyeglasses_wear_1_stageii.npz
Output file: ../robot/ik_based/pkl/009233.pkl
Status: SKIPPED (ALREADY EXISTS) - NO PROCESSING PERFORMED
==================================================

=== SKIPPED (ALREADY EXISTS) - 2025-10-14 22:27:42 ===
File index: 009234
Input file: /data/retarget/locomotion/raw/AMASS_SMPLXG/GRAB/s10/flashlight_on_1_stageii.npz
Output file: ../robot/ik_based/pkl/009234.pkl
Status: SKIPPED (ALREADY EXISTS) - NO PROCESSING PERFORMED
==================================================

=== SKIPPED (ALREADY EXISTS) - 2025-10-14 22:27:42 ===
File index: 009235
Input file: /data/retarget/locomotion/raw/AMASS_SMPLXG/GRAB/s10/flashlight_on_2_stageii.npz
Output file: ../robot/ik_based/pkl/009235.pkl
Status: SKIPPED (ALREADY EXISTS) - NO PROCESSING PERFORMED
==================================================

=== SKIPPED (ALREADY EXISTS) - 2025-10-14 22:27:42 ===
File index: 009236
Input file: /data/retarget/locomotion/raw/AMASS_SMPLXG/GRAB/s10/flute_pass_1_stageii.npz
Output file: ../robot/ik_based/pkl/009236.pkl
Status: SKIPPED (ALREADY EXISTS) - NO PROCESSING PERFORMED
==================================================

=== SKIPPED (ALREADY EXISTS) - 2025-10-14 22:27:42 ===
File index: 009237
Input file: /data/retarget/locomotion/raw/AMASS_SMPLXG/GRAB/s10/flute_play_1_stageii.npz
Output file: ../robot/ik_based/pkl/009237.pkl
Status: SKIPPED (ALREADY EXISTS) - NO PROCESSING PERFORMED
==================================================

=== SKIPPED (ALREADY EXISTS) - 2025-10-14 22:27:42 ===
File index: 009238
Input file: /data/retarget/locomotion/raw/AMASS_SMPLXG/GRAB/s10/fryingpan_cook_1_stageii.npz
Output file: ../robot/ik_based/pkl/009238.pkl
Status: SKIPPED (ALREADY EXISTS) - NO PROCESSING PERFORMED
==================================================

=== SKIPPED (ALREADY EXISTS) - 2025-10-14 22:27:42 ===
File index: 009239
Input file: /data/retarget/locomotion/raw/AMASS_SMPLXG/GRAB/s10/fryingpan_cook_2_stageii.npz
Output file: ../robot/ik_based/pkl/009239.pkl
Status: SKIPPED (ALREADY EXISTS) - NO PROCESSING PERFORMED
==================================================

=== SKIPPED (ALREADY EXISTS) - 2025-10-14 22:27:42 ===
File index: 009240
Input file: /data/retarget/locomotion/raw/AMASS_SMPLXG/GRAB/s10/gamecontroller_pass_1_stageii.npz
Output file: ../robot/ik_based/pkl/009240.pkl
Status: SKIPPED (ALREADY EXISTS) - NO PROCESSING PERFORMED
==================================================

=== SKIPPED (ALREADY EXISTS) - 2025-10-14 22:27:42 ===
File index: 009241
Input file: /data/retarget/locomotion/raw/AMASS_SMPLXG/GRAB/s10/gamecontroller_pick_all_stageii.npz
Output file: ../robot/ik_based/pkl/009241.pkl
Status: SKIPPED (ALREADY EXISTS) - NO PROCESSING PERFORMED
==================================================

=== SKIPPED (ALREADY EXISTS) - 2025-10-14 22:27:42 ===
File index: 009242
Input file: /data/retarget/locomotion/raw/AMASS_SMPLXG/GRAB/s10/gamecontroller_play_1_stageii.npz
Output file: ../robot/ik_based/pkl/009242.pkl
Status: SKIPPED (ALREADY EXISTS) - NO PROCESSING PERFORMED
==================================================

=== SKIPPED (ALREADY EXISTS) - 2025-10-14 22:27:42 ===
File index: 009243
Input file: /data/retarget/locomotion/raw/AMASS_SMPLXG/GRAB/s10/hammer_pass_1_stageii.npz
Output file: ../robot/ik_based/pkl/009243.pkl
Status: SKIPPED (ALREADY EXISTS) - NO PROCESSING PERFORMED
==================================================

=== SKIPPED (ALREADY EXISTS) - 2025-10-14 22:27:42 ===
File index: 009244
Input file: /data/retarget/locomotion/raw/AMASS_SMPLXG/GRAB/s10/hammer_pick_all_stageii.npz
Output file: ../robot/ik_based/pkl/009244.pkl
Status: SKIPPED (ALREADY EXISTS) - NO PROCESSING PERFORMED
==================================================

=== SKIPPED (ALREADY EXISTS) - 2025-10-14 22:27:42 ===
File index: 009245
Input file: /data/retarget/locomotion/raw/AMASS_SMPLXG/GRAB/s10/hammer_use_1_stageii.npz
Output file: ../robot/ik_based/pkl/009245.pkl
[...]
  Align Fps: 11.45s
  Init Retarget: 0.56s
  Init Visualization: 0.00s
  Process Frames: 111.14s (avg: 0.107s/frame)
  Convert Arrays: 0.00s
Error message: CUDA error: out of memory
CUDA kernel errors might be asynchronously reported at some other API call, so the stacktrace below might be incorrect.
For debugging consider passing CUDA_LAUNCH_BLOCKING=1
Compile with `TORCH_USE_CUDA_DSA` to enable device-side assertions.

Error type: AcceleratorError
==================================================

=== FILE FAILURE - 2025-10-15 01:21:15 ===
File index: 010380
File number: 1381/8757
Input file: /data/retarget/locomotion/raw/AMASS_SMPLXG/HDM05/bk/HDM_bk_05-02_03_120_stageii.npz
Output file: ../robot/ik_based/pkl/010380.pkl
Processing time: 156.40 seconds
Total file time: 157.04 seconds
Status: FAILED
==================================================

=== ERROR LOG - 2025-10-15 01:23:55 ===
Input file: /data/retarget/locomotion/raw/AMASS_SMPLXG/HDM05/bk/HDM_bk_05-03_01_120_stageii.npz
Output file: ../robot/ik_based/pkl/010381.pkl
Robot type: unitree_g1
Processing time: 160.42 seconds

STEP-BY-STEP TIMING (FAILED):
  Load Smplx: 33.32s
  Align Fps: 24.51s
  Init Retarget: 0.77s
  Init Visualization: 0.00s
  Process Frames: 101.34s (avg: 0.098s/frame)
  Convert Arrays: 0.03s
Error message: CUDA error: out of memory
CUDA kernel errors might be asynchronously reported at some other API call, so the stacktrace below might be incorrect.
For debugging consider passing CUDA_LAUNCH_BLOCKING=1
Compile with `TORCH_USE_CUDA_DSA` to enable device-side assertions.

Error type: AcceleratorError
==================================================

=== FILE FAILURE - 2025-10-15 01:23:56 ===
File index: 010381
File number: 1382/8757
Input file: /data/retarget/locomotion/raw/AMASS_SMPLXG/HDM05/bk/HDM_bk_05-03_01_120_stageii.npz
Output file: ../robot/ik_based/pkl/010381.pkl
Processing time: 160.42 seconds
Total file time: 161.44 seconds
Status: FAILED
==================================================

=== ERROR LOG - 2025-10-15 01:26:59 ===
Input file: /data/retarget/locomotion/raw/AMASS_SMPLXG/HDM05/bk/HDM_bk_05-03_02_120_stageii.npz
Output file: ../robot/ik_based/pkl/010382.pkl
Robot type: unitree_g1
Processing time: 182.24 seconds

STEP-BY-STEP TIMING (FAILED):
  Load Smplx: 46.51s
  Align Fps: 16.70s
  Init Retarget: 0.49s
  Init Visualization: 0.00s
  Process Frames: 118.48s (avg: 0.103s/frame)
  Convert Arrays: 0.01s
Error message: CUDA error: out of memory
CUDA kernel errors might be asynchronously reported at some other API call, so the stacktrace below might be incorrect.
For debugging consider passing CUDA_LAUNCH_BLOCKING=1
Compile with `TORCH_USE_CUDA_DSA` to enable device-side assertions.

Error type: AcceleratorError
==================================================

=== FILE FAILURE - 2025-10-15 01:27:00 ===
File index: 010382
File number: 1383/8757
Input file: /data/retarget/locomotion/raw/AMASS_SMPLXG/HDM05/bk/HDM_bk_05-03_02_120_stageii.npz
Output file: ../robot/ik_based/pkl/010382.pkl
Processing time: 182.24 seconds
Total file time: 183.25 seconds
Status: FAILED
==================================================

=== ERROR LOG - 2025-10-15 01:29:53 ===
Input file: /data/retarget/locomotion/raw/AMASS_SMPLXG/HDM05/bk/HDM_bk_05-03_03_120_stageii.npz
Output file: ../robot/ik_based/pkl/010383.pkl
Robot type: unitree_g1
Processing time: 173.77 seconds

STEP-BY-STEP TIMING (FAILED):
  Load Smplx: 28.09s
  Align Fps: 14.73s
  Init Retarget: 0.78s
  Init Visualization: 0.00s
  Process Frames: 130.03s (avg: 0.133s/frame)
  Convert Arrays: 0.03s
Error message: CUDA error: out of memory
CUDA kernel errors might be asynchronously reported at some other API call, so the stacktrace below might be incorrect.
For debugging consider passing CUDA_LAUNCH_BLOCKING=1
Compile with `TORCH_USE_CUDA_DSA` to enable device-side assertions.

Error type: AcceleratorError
==================================================

=== FILE FAILURE - 2025-10-15 01:29:54 ===
File index: 010383
File number: 1384/8757
Input file: /data/retarget/locomotion/raw/AMASS_SMPLXG/HDM05/bk/HDM_bk_05-03_03_120_stageii.npz
Output file: ../robot/ik_based/pkl/010383.pkl
Processing time: 173.77 seconds
Total file time: 174.79 seconds
Status: FAILED
==================================================

=== ERROR LOG - 2025-10-15 01:29:56 ===
Input file: /data/retarget/locomotion/raw/AMASS_SMPLXG/HDM05/bk/male_stagei.npz
Output file: ../robot/ik_based/pkl/010384.pkl
Robot type: unitree_g1
Processing time: 1.15 seconds
Error message: 'pose_body is not a file in the archive'
Error type: KeyError
==================================================

=== FILE FAILURE - 2025-10-15 01:29:56 ===
File index: 010384
File number: 1385/8757
Input file: /data/retarget/locomotion/raw/AMASS_SMPLXG/HDM05/bk/male_stagei.npz
Output file: ../robot/ik_based/pkl/010384.pkl
Processing time: 1.15 seconds
Total file time: 1.24 seconds
Status: FAILED
==================================================

=== ERROR LOG - 2025-10-15 01:33:07 ===
Input file: /data/retarget/locomotion/raw/AMASS_SMPLXG/HDM05/dg/HDM_dg_01-01_01_120_stageii.npz
Output file: ../robot/ik_based/pkl/010385.pkl
Robot type: unitree_g1
Processing time: 191.53 seconds

STEP-BY-STEP TIMING (FAILED):
  Load Smplx: 20.74s
  Align Fps: 30.86s
  Init Retarget: 0.96s
  Init Visualization: 0.07s
  Process Frames: 138.80s (avg: 0.074s/frame)
  Convert Arrays: 0.05s
Error message: CUDA error: out of memory
CUDA kernel errors might be asynchronously reported at some other API call, so the stacktrace below might be incorrect.
For debugging consider passing CUDA_LAUNCH_BLOCKING=1
Compile with `TORCH_USE_CUDA_DSA` to enable device-side assertions.

Error type: AcceleratorError
==================================================

=== FILE FAILURE - 2025-10-15 01:33:09 ===
File index: 010385
File number: 1386/8757
Input file: /data/retarget/locomotion/raw/AMASS_SMPLXG/HDM05/dg/HDM_dg_01-01_01_120_stageii.npz
Output file: ../robot/ik_based/pkl/010385.pkl
Processing time: 191.53 seconds
Total file time: 193.44 seconds
Status: FAILED
==================================================

=== ERROR LOG - 2025-10-15 01:36:14 ===
Input file: /data/retarget/locomotion/raw/AMASS_SMPLXG/HDM05/dg/HDM_dg_01-01_02_120_stageii.npz
Output file: ../robot/ik_based/pkl/010386.pkl
Robot type: unitree_g1
Processing time: 184.94 seconds

STEP-BY-STEP TIMING (FAILED):
  Load Smplx: 42.78s
  Align Fps: 28.57s
  Init Retarget: 0.93s
  Init Visualization: 0.00s
  Process Frames: 112.62s (avg: 0.059s/frame)
  Convert Arrays: 0.01s
Error message: CUDA error: out of memory
CUDA kernel errors might be asynchronously reported at some other API call, so the stacktrace below might be incorrect.
For debugging consider passing CUDA_LAUNCH_BLOCKING=1
Compile with `TORCH_USE_CUDA_DSA` to enable device-side assertions.

Error type: AcceleratorError
==================================================

=== FILE FAILURE - 2025-10-15 01:36:16 ===
File index: 010386
File number: 1387/8757
Input file: /data/retarget/locomotion/raw/AMASS_SMPLXG/HDM05/dg/HDM_dg_01-01_02_120_stageii.npz
Output file: ../robot/ik_based/pkl/010386.pkl
Processing time: 184.94 seconds
Total file time: 186.44 seconds
Status: FAILED
==================================================

=== ERROR LOG - 2025-10-15 01:39:55 ===
Input file: /data/retarget/locomotion/raw/AMASS_SMPLXG/HDM05/dg/HDM_dg_01-01_03_120_stageii.npz
Output file: ../robot/ik_based/pkl/010387.pkl
Robot type: unitree_g1
Processing time: 219.60 seconds

STEP-BY-STEP TIMING (FAILED):
  Load Smplx: 27.19s
  Align Fps: 28.42s
  Init Retarget: 1.02s
  Init Visualization: 0.00s
  Process Frames: 162.78s (avg: 0.085s/frame)
  Convert Arrays: 0.03s
Error message: CUDA error: out of memory
CUDA kernel errors might be asynchronously reported at some other API call, so the stacktrace below might be incorrect.
For debugging consider passing CUDA_LAUNCH_BLOCKING=1
Compile with `TORCH_USE_CUDA_DSA` to enable device-side assertions.

Error type: AcceleratorError
==================================================

=== FILE FAILURE - 2025-10-15 01:39:57 ===
File index: 010387
File number: 1388/8757
Input file: /data/retarget/locomotion/raw/AMASS_SMPLXG/HDM05/dg/HDM_dg_01-01_03_120_stageii.npz
Output file: ../robot/ik_based/pkl/010387.pkl
Processing time: 219.60 seconds
Total file time: 221.28 seconds
Status: FAILED
==================================================

=== ERROR LOG - 2025-10-15 01:43:45 ===
Input file: /data/retarget/locomotion/raw/AMASS_SMPLXG/HDM05/dg/HDM_dg_01-01_04_120_stageii.npz
Output file: ../robot/ik_based/pkl/010388.pkl
Robot type: unitree_g1
Processing time: 228.42 seconds

STEP-BY-STEP TIMING (FAILED):
  Load Smplx: 43.28s
  Align Fps: 40.34s
  Init Retarget: 0.35s
  Init Visualization: 0.00s
  Process Frames: 144.41s (avg: 0.076s/frame)
  Convert Arrays: 0.01s
Error message: CUDA error: out of memory
CUDA kernel errors might be asynchronously reported at some other API call, so the stacktrace below might be incorrect.
For debugging consider passing CUDA_LAUNCH_BLOCKING=1
Compile with `TORCH_USE_CUDA_DSA` to enable device-side assertions.

Error type: AcceleratorError
==================================================

=== FILE FAILURE - 2025-10-15 01:43:47 ===
File index: 010388
File number: 1389/8757
Input file: /data/retarget/locomotion/raw/AMASS_SMPLXG/HDM05/dg/HDM_dg_01-01_04_120_stageii.npz
Output file: ../robot/ik_based/pkl/010388.pkl
Processing time: 228.42 seconds
Total file time: 229.88 seconds
Status: FAILED
==================================================

=== ERROR LOG - 2025-10-15 01:45:27 ===
Input file: /data/retarget/locomotion/raw/AMASS_SMPLXG/HDM05/dg/HDM_dg_01-02_01_120_stageii.npz
Output file: ../robot/ik_based/pkl/010389.pkl
Robot type: unitree_g1
Processing time: 100.53 seconds

STEP-BY-STEP TIMING (FAILED):
  Load Smplx: 21.52s
  Align Fps: 10.56s
  Init Retarget: 0.29s
  Init Visualization: 0.00s
  Process Frames: 68.04s (avg: 0.095s/frame)
  Convert Arrays: 0.00s
Error message: CUDA error: out of memory
CUDA kernel errors might be asynchronously reported at some other API call, so the stacktrace below might be incorrect.
For debugging consider passing CUDA_LAUNCH_BLOCKING=1
Compile with `TORCH_USE_CUDA_DSA` to enable device-side assertions.

Error type: AcceleratorError
==================================================

=== FILE FAILURE - 2025-10-15 01:45:28 ===
File index: 010389
File number: 1390/8757
Input file: /data/retarget/locomotion/raw/AMASS_SMPLXG/HDM05/dg/HDM_dg_01-02_01_120_stageii.npz
Output file: ../robot/ik_based/pkl/010389.pkl
Processing time: 100.53 seconds
Total file time: 101.18 seconds
Status: FAILED
==================================================

=== ERROR LOG - 2025-10-15 01:47:16 ===
Input file: /data/retarget/locomotion/raw/AMASS_SMPLXG/HDM05/dg/HDM_dg_01-02_02_120_stageii.npz
Output file: ../robot/ik_based/pkl/010390.pkl
Robot type: unitree_g1
Processing time: 108.27 seconds

STEP-BY-STEP TIMING (FAILED):
  Load Smplx: 24.77s
  Align Fps: 14.45s
  Init Retarget: 1.03s
  Init Visualization: 0.00s
  Process Frames: 67.94s (avg: 0.098s/frame)
  Convert Arrays: 0.00s
Error message: CUDA error: out of memory
CUDA kernel errors might be asynchronously reported at some other API call, so the stacktrace below might be incorrect.
For debugging consider passing CUDA_LAUNCH_BLOCKING=1
Compile with `TORCH_USE_CUDA_DSA` to enable device-side assertions.

Error type: AcceleratorError
==================================================

=== FILE FAILURE - 2025-10-15 01:47:17 ===
File index: 010390
File number: 1391/8757
Input file: /data/retarget/locomotion/raw/AMASS_SMPLXG/HDM05/dg/HDM_dg_01-02_02_120_stageii.npz
Output file: ../robot/ik_based/pkl/010390.pkl
Processing time: 108.27 seconds
Total file time: 109.08 seconds
Status: FAILED
==================================================

=== ERROR LOG - 2025-10-15 01:48:59 ===
Input file: /data/retarget/locomotion/raw/AMASS_SMPLXG/HDM05/dg/HDM_dg_01-02_03_120_stageii.npz
Output file: ../robot/ik_based/pkl/010391.pkl
Robot type: unitree_g1
Processing time: 102.39 seconds

STEP-BY-STEP TIMING (FAILED):
  Load Smplx: 29.18s
  Align Fps: 7.70s
  Init Retarget: 0.76s
  Init Visualization: 0.00s
  Process Frames: 64.69s (avg: 0.093s/frame)
  Convert Arrays: 0.00s
Error message: CUDA error: out of memory
CUDA kernel errors might be asynchronously reported at some other API call, so the stacktrace below might be incorrect.
For debugging consider passing CUDA_LAUNCH_BLOCKING=1
Compile with `TORCH_USE_CUDA_DSA` to enable device-side assertions.

Error type: AcceleratorError
==================================================

=== FILE FAILURE - 2025-10-15 01:49:00 ===
File index: 010391
File number: 1392/8757
Input file: /data/retarget/locomotion/raw/AMASS_SMPLXG/HDM05/dg/HDM_dg_01-02_03_120_stageii.npz
Output file: ../robot/ik_based/pkl/010391.pkl
Processing time: 102.39 seconds
Total file time: 103.22 seconds
Status: FAILED
==================================================

=== ERROR LOG - 2025-10-15 01:51:03 ===
Input file: /data/retarget/locomotion/raw/AMASS_SMPLXG/HDM05/dg/HDM_dg_01-03_01_120_stageii.npz
Output file: ../robot/ik_based/pkl/010392.pkl
Robot type: unitree_g1
Processing time: 122.37 seconds

STEP-BY-STEP TIMING (FAILED):
  Load Smplx: 42.50s
  Align Fps: 16.06s
  Init Retarget: 1.08s
  Init Visualization: 0.00s
  Process Frames: 62.59s (avg: 0.072s/frame)
  Convert Arrays: 0.01s
Error message: CUDA error: out of memory
CUDA kernel errors might be asynchronously reported at some other API call, so the stacktrace below might be incorrect.
For debugging consider passing CUDA_LAUNCH_BLOCKING=1
Compile with `TORCH_USE_CUDA_DSA` to enable device-side assertions.

Error type: AcceleratorError
==================================================

=== FILE FAILURE - 2025-10-15 01:51:04 ===
File index: 010392
File number: 1393/8757
Input file: /data/retarget/locomotion/raw/AMASS_SMPLXG/HDM05/dg/HDM_dg_01-03_01_120_stageii.npz
Output file: ../robot/ik_based/pkl/010392.pkl
Processing time: 122.37 seconds
Total file time: 123.45 seconds
Status: FAILED
==================================================

=== ERROR LOG - 2025-10-15 01:53:18 ===
Input file: /data/retarget/locomotion/raw/AMASS_SMPLXG/HDM05/dg/HDM_dg_01-03_02_120_stageii.npz
Output file: ../robot/ik_based/pkl/010393.pkl
Robot type: unitree_g1
Processing time: 134.62 seconds

STEP-BY-STEP TIMING (FAILED):
  Load Smplx: 40.72s
  Align Fps: 15.76s
  Init Retarget: 1.41s
  Init Visualization: 0.00s
  Process Frames: 76.62s (avg: 0.081s/frame)
  Convert Arrays: 0.01s
Error message: CUDA error: out of memory
CUDA kernel errors might be asynchronously reported at some other API call, so the stacktrace below might be incorrect.
For debugging consider passing CUDA_LAUNCH_BLOCKING=1
Compile with `TORCH_USE_CUDA_DSA` to enable device-side assertions.

Error type: AcceleratorError
==================================================

=== FILE FAILURE - 2025-10-15 01:53:19 ===
File index: 010393
File number: 1394/8757
Input file: /data/retarget/locomotion/raw/AMASS_SMPLXG/HDM05/dg/HDM_dg_01-03_02_120_stageii.npz
Output file: ../robot/ik_based/pkl/010393.pkl
Processing time: 134.62 seconds
Total file time: 135.65 seconds
Status: FAILED
==================================================

=== ERROR LOG - 2025-10-15 01:55:25 ===
Input file: /data/retarget/locomotion/raw/AMASS_SMPLXG/HDM05/dg/HDM_dg_01-03_03_120_stageii.npz
Output file: ../robot/ik_based/pkl/010394.pkl
Robot type: unitree_g1
Processing time: 126.01 seconds

STEP-BY-STEP TIMING (FAILED):
  Load Smplx: 32.02s
  Align Fps: 13.91s
  Init Retarget: 0.41s
  Init Visualization: 0.00s
  Process Frames: 79.63s (avg: 0.089s/frame)
  Convert Arrays: 0.00s
Error message: CUDA error: out of memory
CUDA kernel errors might be asynchronously reported at some other API call, so the stacktrace below might be incorrect.
For debugging consider passing CUDA_LAUNCH_BLOCKING=1
Compile with `TORCH_USE_CUDA_DSA` to enable device-side assertions.

Error type: AcceleratorError
==================================================

=== FILE FAILURE - 2025-10-15 01:55:27 ===
File index: 010394
File number: 1395/8757
Input file: /data/retarget/locomotion/raw/AMASS_SMPLXG/HDM05/dg/HDM_dg_01-03_03_120_stageii.npz
Output file: ../robot/ik_based/pkl/010394.pkl
Processing time: 126.01 seconds
Total file time: 127.22 seconds
Status: FAILED
==================================================

=== ERROR LOG - 2025-10-15 01:58:29 ===
Input file: /data/retarget/locomotion/raw/AMASS_SMPLXG/HDM05/dg/HDM_dg_01-04_01_120_stageii.npz
Output file: ../robot/ik_based/pkl/010395.pkl
Robot type: unitree_g1
Processing time: 182.37 seconds

STEP-BY-STEP TIMING (FAILED):
  Load Smplx: 43.06s
  Align Fps: 30.85s
  Init Retarget: 2.09s
  Init Visualization: 0.01s
  Process Frames: 106.24s (avg: 0.077s/frame)
  Convert Arrays: 0.06s
Error message: CUDA error: out of memory
CUDA kernel errors might be asynchronously reported at some other API call, so the stacktrace below might be incorrect.
For debugging consider passing CUDA_LAUNCH_BLOCKING=1
Compile with `TORCH_USE_CUDA_DSA` to enable device-side assertions.

Error type: AcceleratorError
==================================================

=== FILE FAILURE - 2025-10-15 01:58:30 ===
File index: 010395
File number: 1396/8757
Input file: /data/retarget/locomotion/raw/AMASS_SMPLXG/HDM05/dg/HDM_dg_01-04_01_120_stageii.npz
Output file: ../robot/ik_based/pkl/010395.pkl
Processing time: 182.37 seconds
Total file time: 183.85 seconds
Status: FAILED
==================================================

=== ERROR LOG - 2025-10-15 02:01:32 ===
Input file: /data/retarget/locomotion/raw/AMASS_SMPLXG/HDM05/dg/HDM_dg_01-04_02_120_stageii.npz
Output file: ../robot/ik_based/pkl/010396.pkl
Robot type: unitree_g1
Processing time: 181.36 seconds

STEP-BY-STEP TIMING (FAILED):
  Load Smplx: 32.57s
  Align Fps: 22.26s
  Init Retarget: 2.02s
  Init Visualization: 0.00s
  Process Frames: 124.20s (avg: 0.078s/frame)
  Convert Arrays: 0.07s
Error message: CUDA error: out of memory
CUDA kernel errors might be asynchronously reported at some other API call, so the stacktrace below might be incorrect.
For debugging consider passing CUDA_LAUNCH_BLOCKING=1
Compile with `TORCH_USE_CUDA_DSA` to enable device-side assertions.

Error type: AcceleratorError
==================================================

=== FILE FAILURE - 2025-10-15 02:01:33 ===
File index: 010396
File number: 1397/8757
Input file: /data/retarget/locomotion/raw/AMASS_SMPLXG/HDM05/dg/HDM_dg_01-04_02_120_stageii.npz
Output file: ../robot/ik_based/pkl/010396.pkl
Processing time: 181.36 seconds
Total file time: 182.65 seconds
Status: FAILED
==================================================

=== ERROR LOG - 2025-10-15 02:04:42 ===
Input file: /data/retarget/locomotion/raw/AMASS_SMPLXG/HDM05/dg/HDM_dg_01-04_03_120_stageii.npz
Output file: ../robot/ik_based/pkl/010397.pkl
Robot type: unitree_g1
Processing time: 188.89 seconds

STEP-BY-STEP TIMING (FAILED):
  Load Smplx: 48.33s
  Align Fps: 22.24s
  Init Retarget: 0.99s
  Init Visualization: 0.00s
  Process Frames: 117.27s (avg: 0.078s/frame)
  Convert Arrays: 0.01s
Error message: CUDA error: out of memory
CUDA kernel errors might be asynchronously reported at some other API call, so the stacktrace below might be incorrect.
For debugging consider passing CUDA_LAUNCH_BLOCKING=1
Compile with `TORCH_USE_CUDA_DSA` to enable device-side assertions.

Error type: AcceleratorError
==================================================

=== FILE FAILURE - 2025-10-15 02:04:43 ===
File index: 010397
File number: 1398/8757
Input file: /data/retarget/locomotion/raw/AMASS_SMPLXG/HDM05/dg/HDM_dg_01-04_03_120_stageii.npz
Output file: ../robot/ik_based/pkl/010397.pkl
Processing time: 188.89 seconds
Total file time: 190.19 seconds
Status: FAILED
==================================================
