
=== SUCCESS LOG - 2025-10-14 14:29:19 ===
Input file: /data/retarget/locomotion/raw/AMASS_SMPLXG/GRAB/s1/bowl_pass_1_stageii.npz
Output file: ../robot/ik_based/pkl/009006.pkl
Robot type: unitree_g1
Processing time: 638.04 seconds

STEP-BY-STEP TIMING:
  Step 1 - Load SMPLX:        36.34s
  Step 2 - Align FPS:         34.99s
  Step 3 - Init Retarget:     53.42s
  Step 4 - Init Visualization: 0.30s
  Step 5 - Process Frames:    479.51s (avg: 3.114s/frame)
  Step 6 - Convert Arrays:    0.05s
  Step 7 - Forward Kinematics: 17.39s
  Step 8 - Save Data:         0.23s
Status: SUCCESS
==================================================

=== SUCCESS LOG - 2025-10-14 14:29:48 ===
Input file: /data/retarget/locomotion/raw/AMASS_SMPLXG/GRAB/s1/cylindersmall_pass_1_stageii.npz
Output file: ../robot/ik_based/pkl/009042.pkl
Robot type: unitree_g1
Processing time: 666.60 seconds

STEP-BY-STEP TIMING:
  Step 1 - Load SMPLX:        59.21s
  Step 2 - Align FPS:         91.55s
  Step 3 - Init Retarget:     3.42s
  Step 4 - Init Visualization: 0.00s
  Step 5 - Process Frames:    478.80s (avg: 2.884s/frame)
  Step 6 - Convert Arrays:    0.02s
  Step 7 - Forward Kinematics: 19.66s
  Step 8 - Save Data:         0.27s
Status: SUCCESS
==================================================

=== SUCCESS LOG - 2025-10-14 14:30:43 ===
Input file: /data/retarget/locomotion/raw/AMASS_SMPLXG/GRAB/s1/cubelarge_pass_1_stageii.npz
Output file: ../robot/ik_based/pkl/009017.pkl
Robot type: unitree_g1
Processing time: 721.54 seconds

STEP-BY-STEP TIMING:
  Step 1 - Load SMPLX:        35.08s
  Step 2 - Align FPS:         47.25s
  Step 3 - Init Retarget:     41.98s
  Step 4 - Init Visualization: 0.27s
  Step 5 - Process Frames:    565.57s (avg: 2.800s/frame)
  Step 6 - Convert Arrays:    0.03s
  Step 7 - Forward Kinematics: 15.16s
  Step 8 - Save Data:         0.18s
Status: SUCCESS
==================================================

=== SUCCESS LOG - 2025-10-14 14:31:10 ===
Input file: /data/retarget/locomotion/raw/AMASS_SMPLXG/GRAB/s1/camera_pass_1_stageii.npz
Output file: ../robot/ik_based/pkl/009010.pkl
Robot type: unitree_g1
Processing time: 749.07 seconds

STEP-BY-STEP TIMING:
  Step 1 - Load SMPLX:        37.93s
  Step 2 - Align FPS:         55.58s
  Step 3 - Init Retarget:     33.71s
  Step 4 - Init Visualization: 0.22s
  Step 5 - Process Frames:    588.94s (avg: 2.916s/frame)
  Step 6 - Convert Arrays:    0.03s
  Step 7 - Forward Kinematics: 19.00s
  Step 8 - Save Data:         0.20s
Status: SUCCESS
==================================================

=== SUCCESS LOG - 2025-10-14 14:32:59 ===
Input file: /data/retarget/locomotion/raw/AMASS_SMPLXG/GRAB/s1/bowl_drink_2_stageii.npz
Output file: ../robot/ik_based/pkl/009005.pkl
Robot type: unitree_g1
Processing time: 857.49 seconds

STEP-BY-STEP TIMING:
  Step 1 - Load SMPLX:        38.21s
  Step 2 - Align FPS:         63.83s
  Step 3 - Init Retarget:     31.76s
  Step 4 - Init Visualization: 0.19s
  Step 5 - Process Frames:    688.89s (avg: 2.858s/frame)
  Step 6 - Convert Arrays:    0.05s
  Step 7 - Forward Kinematics: 17.93s
  Step 8 - Save Data:         0.37s
Status: SUCCESS
==================================================

=== SUCCESS LOG - 2025-10-14 14:33:04 ===
Input file: /data/retarget/locomotion/raw/AMASS_SMPLXG/GRAB/s1/cylindersmall_inspect_1_stageii.npz
Output file: ../robot/ik_based/pkl/009040.pkl
Robot type: unitree_g1
Processing time: 862.77 seconds

STEP-BY-STEP TIMING:
  Step 1 - Load SMPLX:        83.45s
  Step 2 - Align FPS:         141.93s
  Step 3 - Init Retarget:     23.06s
  Step 4 - Init Visualization: 1.24s
  Step 5 - Process Frames:    575.29s (avg: 2.580s/frame)
  Step 6 - Convert Arrays:    0.04s
  Step 7 - Forward Kinematics: 17.73s
  Step 8 - Save Data:         0.45s
Status: SUCCESS
==================================================

=== SUCCESS LOG - 2025-10-14 14:33:12 ===
Input file: /data/retarget/locomotion/raw/AMASS_SMPLXG/GRAB/s1/camera_offhand_1_stageii.npz
Output file: ../robot/ik_based/pkl/009009.pkl
Robot type: unitree_g1
Processing time: 870.93 seconds

STEP-BY-STEP TIMING:
  Step 1 - Load SMPLX:        33.91s
  Step 2 - Align FPS:         64.34s
  Step 3 - Init Retarget:     32.87s
  Step 4 - Init Visualization: 0.20s
  Step 5 - Process Frames:    705.16s (avg: 2.712s/frame)
  Step 6 - Convert Arrays:    0.00s
  Step 7 - Forward Kinematics: 18.47s
  Step 8 - Save Data:         0.24s
Status: SUCCESS
==================================================

=== SUCCESS LOG - 2025-10-14 14:33:25 ===
Input file: /data/retarget/locomotion/raw/AMASS_SMPLXG/GRAB/s1/cylindermedium_pass_1_stageii.npz
Output file: ../robot/ik_based/pkl/009038.pkl
Robot type: unitree_g1
Processing time: 883.93 seconds

STEP-BY-STEP TIMING:
  Step 1 - Load SMPLX:        82.28s
  Step 2 - Align FPS:         144.72s
  Step 3 - Init Retarget:     46.83s
  Step 4 - Init Visualization: 0.73s
  Step 5 - Process Frames:    572.24s (avg: 2.637s/frame)
  Step 6 - Convert Arrays:    0.00s
  Step 7 - Forward Kinematics: 19.32s
  Step 8 - Save Data:         0.43s
Status: SUCCESS
==================================================

=== SUCCESS LOG - 2025-10-14 14:33:53 ===
Input file: /data/retarget/locomotion/raw/AMASS_SMPLXG/GRAB/s1/cubemedium_pass_1_stageii.npz
Output file: ../robot/ik_based/pkl/009021.pkl
Robot type: unitree_g1
Processing time: 911.73 seconds

STEP-BY-STEP TIMING:
  Step 1 - Load SMPLX:        33.39s
  Step 2 - Align FPS:         70.58s
  Step 3 - Init Retarget:     29.48s
  Step 4 - Init Visualization: 0.43s
  Step 5 - Process Frames:    747.36s (avg: 2.886s/frame)
  Step 6 - Convert Arrays:    0.00s
  Step 7 - Forward Kinematics: 15.05s
  Step 8 - Save Data:         0.18s
Status: SUCCESS
==================================================

=== SUCCESS LOG - 2025-10-14 14:35:03 ===
Input file: /data/retarget/locomotion/raw/AMASS_SMPLXG/GRAB/s1/cubemedium_inspect_1_stageii.npz
Output file: ../robot/ik_based/pkl/009019.pkl
Robot type: unitree_g1
Processing time: 982.09 seconds

STEP-BY-STEP TIMING:
  Step 1 - Load SMPLX:        77.69s
  Step 2 - Align FPS:         149.80s
  Step 3 - Init Retarget:     47.63s
  Step 4 - Init Visualization: 0.94s
  Step 5 - Process Frames:    675.69s (avg: 2.512s/frame)
  Step 6 - Convert Arrays:    0.05s
  Step 7 - Forward Kinematics: 16.20s
  Step 8 - Save Data:         0.22s
Status: SUCCESS
==================================================

=== SUCCESS LOG - 2025-10-14 14:35:07 ===
Input file: /data/retarget/locomotion/raw/AMASS_SMPLXG/GRAB/s1/cylinderlarge_pass_1_stageii.npz
Output file: ../robot/ik_based/pkl/009034.pkl
Robot type: unitree_g1
Processing time: 985.36 seconds

STEP-BY-STEP TIMING:
  Step 1 - Load SMPLX:        81.54s
  Step 2 - Align FPS:         154.11s
  Step 3 - Init Retarget:     78.41s
  Step 4 - Init Visualization: 1.22s
  Step 5 - Process Frames:    640.40s (avg: 2.668s/frame)
  Step 6 - Convert Arrays:    0.00s
  Step 7 - Forward Kinematics: 15.03s
  Step 8 - Save Data:         0.12s
Status: SUCCESS
==================================================

=== SUCCESS LOG - 2025-10-14 14:35:08 ===
Input file: /data/retarget/locomotion/raw/AMASS_SMPLXG/GRAB/s1/duck_inspect_1_stageii.npz
Output file: ../robot/ik_based/pkl/009047.pkl
Robot type: unitree_g1
Processing time: 986.59 seconds

STEP-BY-STEP TIMING:
  Step 1 - Load SMPLX:        82.10s
  Step 2 - Align FPS:         151.83s
  Step 3 - Init Retarget:     76.30s
  Step 4 - Init Visualization: 0.96s
  Step 5 - Process Frames:    644.68s (avg: 2.621s/frame)
  Step 6 - Convert Arrays:    0.00s
  Step 7 - Forward Kinematics: 15.00s
  Step 8 - Save Data:         0.53s
Status: SUCCESS
==================================================

=== SUCCESS LOG - 2025-10-14 14:35:16 ===
Input file: /data/retarget/locomotion/raw/AMASS_SMPLXG/GRAB/s1/camera_browse_1_stageii.npz
Output file: ../robot/ik_based/pkl/009008.pkl
Robot type: unitree_g1
Processing time: 994.75 seconds

STEP-BY-STEP TIMING:
  Step 1 - Load SMPLX:        39.95s
  Step 2 - Align FPS:         100.89s
  Step 3 - Init Retarget:     3.45s
  Step 4 - Init Visualization: 0.01s
  Step 5 - Process Frames:    820.61s (avg: 2.541s/frame)
  Step 6 - Convert Arrays:    0.06s
  Step 7 - Forward Kinematics: 15.54s
  Step 8 - Save Data:         0.22s
Status: SUCCESS
==================================================

=== SUCCESS LOG - 2025-10-14 14:35:29 ===
Input file: /data/retarget/locomotion/raw/AMASS_SMPLXG/GRAB/s1/cup_drink_1_stageii.npz
Output file: ../robot/ik_based/pkl/009027.pkl
Robot type: unitree_g1
Processing time: 1007.84 seconds

STEP-BY-STEP TIMING:
  Step 1 - Load SMPLX:        72.43s
  Step 2 - Align FPS:         162.71s
  Step 3 - Init Retarget:     77.39s
  Step 4 - Init Visualization: 0.90s
  Step 5 - Process Frames:    660.50s (avg: 2.428s/frame)
  Step 6 - Convert Arrays:    0.00s
  Step 7 - Forward Kinematics: 17.17s
  Step 8 - Save Data:         0.41s
Status: SUCCESS
==================================================

=== SUCCESS LOG - 2025-10-14 14:35:30 ===
Input file: /data/retarget/locomotion/raw/AMASS_SMPLXG/GRAB/s1/cup_pass_1_stageii.npz
Output file: ../robot/ik_based/pkl/009029.pkl
Robot type: unitree_g1
Processing time: 1009.28 seconds

STEP-BY-STEP TIMING:
  Step 1 - Load SMPLX:        82.46s
  Step 2 - Align FPS:         164.18s
  Step 3 - Init Retarget:     84.93s
  Step 4 - Init Visualization: 0.61s
  Step 5 - Process Frames:    644.56s (avg: 2.610s/frame)
  Step 6 - Convert Arrays:    0.04s
  Step 7 - Forward Kinematics: 16.02s
  Step 8 - Save Data:         0.23s
Status: SUCCESS
==================================================

=== SUCCESS LOG - 2025-10-14 14:35:39 ===
Input file: /data/retarget/locomotion/raw/AMASS_SMPLXG/GRAB/s1/cylindersmall_offhand_1_stageii.npz
Output file: ../robot/ik_based/pkl/009041.pkl
Robot type: unitree_g1
Processing time: 1017.28 seconds

STEP-BY-STEP TIMING:
  Step 1 - Load SMPLX:        83.27s
  Step 2 - Align FPS:         160.39s
  Step 3 - Init Retarget:     85.54s
  Step 4 - Init Visualization: 0.58s
  Step 5 - Process Frames:    656.08s (avg: 2.635s/frame)
  Step 6 - Convert Arrays:    0.00s
  Step 7 - Forward Kinematics: 15.67s
  Step 8 - Save Data:         0.34s
Status: SUCCESS
==================================================

=== SUCCESS LOG - 2025-10-14 14:35:43 ===
Input file: /data/retarget/locomotion/raw/AMASS_SMPLXG/GRAB/s1/doorknob_use_1_stageii.npz
Output file: ../robot/ik_based/pkl/009044.pkl
Robot type: unitree_g1
Processing time: 1022.16 seconds

STEP-BY-STEP TIMING:
  Step 1 - Load SMPLX:        72.63s
  Step 2 - Align FPS:         161.78s
  Step 3 - Init Retarget:     76.42s
  Step 4 - Init Visualization: 0.92s
  Step 5 - Process Frames:    678.51s (avg: 2.610s/frame)
  Step 6 - Convert Arrays:    0.00s
  Step 7 - Forward Kinematics: 15.30s
  Step 8 - Save Data:         0.19s
Status: SUCCESS
==================================================

=== SUCCESS LOG - 2025-10-14 14:35:45 ===
Input file: /data/retarget/locomotion/raw/AMASS_SMPLXG/GRAB/s1/doorknob_use_2_stageii.npz
Output file: ../robot/ik_based/pkl/009045.pkl
Robot type: unitree_g1
Processing time: 1023.09 seconds

STEP-BY-STEP TIMING:
  Step 1 - Load SMPLX:        91.47s
  Step 2 - Align FPS:         148.13s
  Step 3 - Init Retarget:     85.42s
  Step 4 - Init Visualization: 0.58s
  Step 5 - Process Frames:    665.09s (avg: 2.608s/frame)
  Step 6 - Convert Arrays:    0.06s
  Step 7 - Forward Kinematics: 15.97s
  Step 8 - Save Data:         0.19s
Status: SUCCESS
==================================================

=== SUCCESS LOG - 2025-10-14 14:36:09 ===
Input file: /data/retarget/locomotion/raw/AMASS_SMPLXG/GRAB/s1/duck_offhand_1_stageii.npz
Output file: ../robot/ik_based/pkl/009048.pkl
Robot type: unitree_g1
Processing time: 1047.76 seconds

STEP-BY-STEP TIMING:
  Step 1 - Load SMPLX:        83.98s
  Step 2 - Align FPS:         159.71s
  Step 3 - Init Retarget:     85.30s
  Step 4 - Init Visualization: 0.72s
  Step 5 - Process Frames:    686.47s (avg: 2.724s/frame)
  Step 6 - Convert Arrays:    0.04s
  Step 7 - Forward Kinematics: 16.83s
  Step 8 - Save Data:         0.19s
Status: SUCCESS
==================================================

=== SUCCESS LOG - 2025-10-14 14:36:23 ===
Input file: /data/retarget/locomotion/raw/AMASS_SMPLXG/GRAB/s1/cylindermedium_inspect_1_stageii.npz
Output file: ../robot/ik_based/pkl/009036.pkl
Robot type: unitree_g1
Processing time: 1061.64 seconds

STEP-BY-STEP TIMING:
  Step 1 - Load SMPLX:        84.62s
  Step 2 - Align FPS:         167.60s
  Step 3 - Init Retarget:     82.48s
  Step 4 - Init Visualization: 0.43s
  Step 5 - Process Frames:    694.76s (avg: 2.472s/frame)
  Step 6 - Convert Arrays:    0.00s
  Step 7 - Forward Kinematics: 15.38s
  Step 8 - Save Data:         0.32s
Status: SUCCESS
==================================================

=== SUCCESS LOG - 2025-10-14 14:36:46 ===
Input file: /data/retarget/locomotion/raw/AMASS_SMPLXG/GRAB/s1/duck_offhand_2_stageii.npz
Output file: ../robot/ik_based/pkl/009049.pkl
Robot type: unitree_g1
Processing time: 1084.26 seconds

STEP-BY-STEP TIMING:
  Step 1 - Load SMPLX:        81.86s
  Step 2 - Align FPS:         168.94s
  Step 3 - Init Retarget:     82.07s
  Step 4 - Init Visualization: 0.65s
  Step 5 - Process Frames:    721.85s (avg: 2.634s/frame)
  Step 6 - Convert Arrays:    0.01s
  Step 7 - Forward Kinematics: 15.74s
  Step 8 - Save Data:         0.16s
Status: SUCCESS
==================================================

=== SUCCESS LOG - 2025-10-14 14:36:49 ===
Input file: /data/retarget/locomotion/raw/AMASS_SMPLXG/GRAB/s1/binoculars_pass_1_stageii.npz
Output file: ../robot/ik_based/pkl/009001.pkl
Robot type: unitree_g1
Processing time: 1087.99 seconds

STEP-BY-STEP TIMING:
  Step 1 - Load SMPLX:        82.91s
  Step 2 - Align FPS:         169.71s
  Step 3 - Init Retarget:     82.59s
  Step 4 - Init Visualization: 0.44s
  Step 5 - Process Frames:    724.99s (avg: 2.627s/frame)
  Step 6 - Convert Arrays:    0.03s
  Step 7 - Forward Kinematics: 13.86s
  Step 8 - Save Data:         0.29s
Status: SUCCESS
==================================================

=== SUCCESS LOG - 2025-10-14 14:37:06 ===
Input file: /data/retarget/locomotion/raw/AMASS_SMPLXG/GRAB/s1/cup_pour_1_stageii.npz
Output file: ../robot/ik_based/pkl/009031.pkl
Robot type: unitree_g1
Processing time: 1103.31 seconds

STEP-BY-STEP TIMING:
  Step 1 - Load SMPLX:        70.25s
  Step 2 - Align FPS:         184.59s
  Step 3 - Init Retarget:     81.05s
  Step 4 - Init Visualization: 0.50s
  Step 5 - Process Frames:    735.75s (avg: 2.444s/frame)
  Step 6 - Convert Arrays:    0.05s
  Step 7 - Forward Kinematics: 14.76s
  Step 8 - Save Data:         0.56s
Status: SUCCESS
==================================================

=== SUCCESS LOG - 2025-10-14 14:37:28 ===
Input file: /data/retarget/locomotion/raw/AMASS_SMPLXG/GRAB/s1/cubesmall_offhand_1_stageii.npz
Output file: ../robot/ik_based/pkl/009024.pkl
Robot type: unitree_g1
Processing time: 1126.46 seconds

STEP-BY-STEP TIMING:
  Step 1 - Load SMPLX:        86.49s
  Step 2 - Align FPS:         180.01s
  Step 3 - Init Retarget:     78.10s
  Step 4 - Init Visualization: 0.30s
  Step 5 - Process Frames:    751.62s (avg: 2.371s/frame)
  Step 6 - Convert Arrays:    0.06s
  Step 7 - Forward Kinematics: 15.19s
  Step 8 - Save Data:         0.20s
Status: SUCCESS
==================================================

=== SUCCESS LOG - 2025-10-14 14:37:33 ===
Input file: /data/retarget/locomotion/raw/AMASS_SMPLXG/GRAB/s1/cubesmall_pass_1_stageii.npz
Output file: ../robot/ik_based/pkl/009025.pkl
Robot type: unitree_g1
Processing time: 1131.69 seconds

STEP-BY-STEP TIMING:
  Step 1 - Load SMPLX:        91.63s
  Step 2 - Align FPS:         169.32s
  Step 3 - Init Retarget:     80.17s
  Step 4 - Init Visualization: 0.50s
  Step 5 - Process Frames:    758.43s (avg: 2.661s/frame)
  Step 6 - Convert Arrays:    0.12s
  Step 7 - Forward Kinematics: 15.01s
  Step 8 - Save Data:         0.39s
Status: SUCCESS
==================================================

=== SUCCESS LOG - 2025-10-14 14:37:40 ===
Input file: /data/retarget/locomotion/raw/AMASS_SMPLXG/GRAB/s1/cylinderlarge_offhand_1_stageii.npz
Output file: ../robot/ik_based/pkl/009033.pkl
Robot type: unitree_g1
Processing time: 1138.64 seconds

STEP-BY-STEP TIMING:
  Step 1 - Load SMPLX:        86.69s
  Step 2 - Align FPS:         183.60s
  Step 3 - Init Retarget:     76.10s
  Step 4 - Init Visualization: 0.39s
  Step 5 - Process Frames:    761.45s (avg: 2.425s/frame)
  Step 6 - Convert Arrays:    0.00s
  Step 7 - Forward Kinematics: 15.45s
  Step 8 - Save Data:         0.16s
Status: SUCCESS
==================================================

=== SUCCESS LOG - 2025-10-14 14:38:00 ===
Input file: /data/retarget/locomotion/raw/AMASS_SMPLXG/GRAB/s1/camera_takepicture_1_stageii.npz
Output file: ../robot/ik_based/pkl/009012.pkl
Robot type: unitree_g1
Processing time: 1159.19 seconds

STEP-BY-STEP TIMING:
  Step 1 - Load SMPLX:        42.83s
  Step 2 - Align FPS:         148.88s
  Step 3 - Init Retarget:     4.67s
  Step 4 - Init Visualization: 0.05s
  Step 5 - Process Frames:    927.74s (avg: 2.599s/frame)
  Step 6 - Convert Arrays:    0.00s
  Step 7 - Forward Kinematics: 17.44s
  Step 8 - Save Data:         0.26s
Status: SUCCESS
==================================================

=== SUCCESS LOG - 2025-10-14 14:38:31 ===
Input file: /data/retarget/locomotion/raw/AMASS_SMPLXG/GRAB/s1/cubemedium_offhand_1_stageii.npz
Output file: ../robot/ik_based/pkl/009020.pkl
Robot type: unitree_g1
Processing time: 1189.45 seconds

STEP-BY-STEP TIMING:
  Step 1 - Load SMPLX:        62.24s
  Step 2 - Align FPS:         179.36s
  Step 3 - Init Retarget:     85.56s
  Step 4 - Init Visualization: 0.59s
  Step 5 - Process Frames:    827.14s (avg: 2.569s/frame)
  Step 6 - Convert Arrays:    0.08s
  Step 7 - Forward Kinematics: 17.00s
  Step 8 - Save Data:         0.64s
Status: SUCCESS
==================================================

=== SUCCESS LOG - 2025-10-14 14:39:21 ===
Input file: /data/retarget/locomotion/raw/AMASS_SMPLXG/GRAB/s1/cylindermedium_offhand_1_stageii.npz
Output file: ../robot/ik_based/pkl/009037.pkl
Robot type: unitree_g1
Processing time: 1240.12 seconds

STEP-BY-STEP TIMING:
  Step 1 - Load SMPLX:        91.58s
  Step 2 - Align FPS:         191.38s
  Step 3 - Init Retarget:     69.30s
  Step 4 - Init Visualization: 0.31s
  Step 5 - Process Frames:    853.64s (avg: 2.467s/frame)
  Step 6 - Convert Arrays:    0.01s
  Step 7 - Forward Kinematics: 19.08s
  Step 8 - Save Data:         0.22s
Status: SUCCESS
==================================================

=== SUCCESS LOG - 2025-10-14 14:39:24 ===
Input file: /data/retarget/locomotion/raw/AMASS_SMPLXG/GRAB/s1/camera_takepicture_3_Retake_stageii.npz
Output file: ../robot/ik_based/pkl/009014.pkl
Robot type: unitree_g1
Processing time: 1243.10 seconds

STEP-BY-STEP TIMING:
  Step 1 - Load SMPLX:        85.96s
  Step 2 - Align FPS:         182.92s
  Step 3 - Init Retarget:     76.74s
  Step 4 - Init Visualization: 0.53s
  Step 5 - Process Frames:    862.46s (avg: 2.457s/frame)
  Step 6 - Convert Arrays:    0.01s
  Step 7 - Forward Kinematics: 19.11s
  Step 8 - Save Data:         0.20s
Status: SUCCESS
==================================================

=== SUCCESS LOG - 2025-10-14 14:39:35 ===
Input file: /data/retarget/locomotion/raw/AMASS_SMPLXG/GRAB/s1/cubesmall_inspect_1_stageii.npz
Output file: ../robot/ik_based/pkl/009023.pkl
Robot type: unitree_g1
Processing time: 1253.47 seconds

STEP-BY-STEP TIMING:
  Step 1 - Load SMPLX:        62.29s
  Step 2 - Align FPS:         187.36s
  Step 3 - Init Retarget:     83.20s
  Step 4 - Init Visualization: 0.64s
  Step 5 - Process Frames:    885.56s (avg: 2.516s/frame)
  Step 6 - Convert Arrays:    0.03s
  Step 7 - Forward Kinematics: 16.97s
  Step 8 - Save Data:         0.29s
Status: SUCCESS
==================================================

=== SUCCESS LOG - 2025-10-14 14:39:43 ===
Input file: /data/retarget/locomotion/raw/AMASS_SMPLXG/GRAB/s1/cup_drink_2_stageii.npz
Output file: ../robot/ik_based/pkl/009028.pkl
Robot type: unitree_g1
Processing time: 1261.44 seconds

STEP-BY-STEP TIMING:
  Step 1 - Load SMPLX:        86.36s
  Step 2 - Align FPS:         176.82s
  Step 3 - Init Retarget:     79.48s
  Step 4 - Init Visualization: 0.55s
  Step 5 - Process Frames:    884.36s (avg: 2.571s/frame)
  Step 6 - Convert Arrays:    0.05s
  Step 7 - Forward Kinematics: 14.89s
  Step 8 - Save Data:         0.35s
Status: SUCCESS
==================================================

=== SUCCESS LOG - 2025-10-14 14:40:11 ===
Input file: /data/retarget/locomotion/raw/AMASS_SMPLXG/GRAB/s1/cubelarge_offhand_1_stageii.npz
Output file: ../robot/ik_based/pkl/009016.pkl
Robot type: unitree_g1
Processing time: 1289.81 seconds

STEP-BY-STEP TIMING:
  Step 1 - Load SMPLX:        88.68s
  Step 2 - Align FPS:         192.54s
  Step 3 - Init Retarget:     71.05s
  Step 4 - Init Visualization: 0.28s
  Step 5 - Process Frames:    905.53s (avg: 2.408s/frame)
  Step 6 - Convert Arrays:    0.06s
  Step 7 - Forward Kinematics: 16.73s
  Step 8 - Save Data:         0.27s
Status: SUCCESS
==================================================

=== SUCCESS LOG - 2025-10-14 14:40:26 ===
Input file: /data/retarget/locomotion/raw/AMASS_SMPLXG/GRAB/s1/cylinderlarge_inspect_1_stageii.npz
Output file: ../robot/ik_based/pkl/009032.pkl
Robot type: unitree_g1
Processing time: 1305.14 seconds

STEP-BY-STEP TIMING:
  Step 1 - Load SMPLX:        84.62s
  Step 2 - Align FPS:         193.06s
  Step 3 - Init Retarget:     72.79s
  Step 4 - Init Visualization: 0.40s
  Step 5 - Process Frames:    921.60s (avg: 2.532s/frame)
  Step 6 - Convert Arrays:    0.01s
  Step 7 - Forward Kinematics: 16.69s
  Step 8 - Save Data:         0.41s
Status: SUCCESS
==================================================

=== SUCCESS LOG - 2025-10-14 14:41:31 ===
Input file: /data/retarget/locomotion/raw/AMASS_SMPLXG/GRAB/s1/duck_pass_1_stageii.npz
Output file: ../robot/ik_based/pkl/009050.pkl
Robot type: unitree_g1
Processing time: 728.29 seconds

STEP-BY-STEP TIMING:
  Step 1 - Load SMPLX:        111.28s
  Step 2 - Align FPS:         68.73s
  Step 3 - Init Retarget:     2.87s
  Step 4 - Init Visualization: 0.00s
  Step 5 - Process Frames:    513.69s (avg: 2.356s/frame)
  Step 6 - Convert Arrays:    0.00s
  Step 7 - Forward Kinematics: 16.67s
  Step 8 - Save Data:         0.13s
Status: SUCCESS
==================================================

=== SUCCESS LOG - 2025-10-14 14:42:40 ===
Input file: /data/retarget/locomotion/raw/AMASS_SMPLXG/GRAB/s1/doorknob_use_fun_1_stageii.npz
Output file: ../robot/ik_based/pkl/009046.pkl
Robot type: unitree_g1
Processing time: 1438.87 seconds

STEP-BY-STEP TIMING:
  Step 1 - Load SMPLX:        87.30s
  Step 2 - Align FPS:         192.55s
  Step 3 - Init Retarget:     71.26s
  Step 4 - Init Visualization: 0.31s
  Step 5 - Process Frames:    1050.53s (avg: 2.809s/frame)
  Step 6 - Convert Arrays:    0.00s
  Step 7 - Forward Kinematics: 20.73s
  Step 8 - Save Data:         0.44s
Status: SUCCESS
==================================================

=== SUCCESS LOG - 2025-10-14 14:42:56 ===
Input file: /data/retarget/locomotion/raw/AMASS_SMPLXG/GRAB/s1/binoculars_offhand_1_stageii.npz
Output file: ../robot/ik_based/pkl/009000.pkl
Robot type: unitree_g1
Processing time: 1453.12 seconds

STEP-BY-STEP TIMING:
  Step 1 - Load SMPLX:        80.71s
  Step 2 - Align FPS:         212.94s
  Step 3 - Init Retarget:     62.77s
  Step 4 - Init Visualization: 0.26s
  Step 5 - Process Frames:    1060.83s (avg: 2.581s/frame)
  Step 6 - Convert Arrays:    0.00s
  Step 7 - Forward Kinematics: 18.29s
  Step 8 - Save Data:         0.44s
Status: SUCCESS
==================================================

=== SUCCESS LOG - 2025-10-14 14:43:03 ===
Input file: /data/retarget/locomotion/raw/AMASS_SMPLXG/GRAB/s1/bowl_drink_1_stageii.npz
Output file: ../robot/ik_based/pkl/009004.pkl
Robot type: unitree_g1
Processing time: 1461.10 seconds

STEP-BY-STEP TIMING:
  Step 1 - Load SMPLX:        85.68s
  Step 2 - Align FPS:         219.98s
  Step 3 - Init Retarget:     53.45s
  Step 4 - Init Visualization: 0.02s
  Step 5 - Process Frames:    1067.29s (avg: 2.591s/frame)
  Step 6 - Convert Arrays:    0.02s
  Step 7 - Forward Kinematics: 16.42s
  Step 8 - Save Data:         0.30s
Status: SUCCESS
==================================================

=== SUCCESS LOG - 2025-10-14 14:43:50 ===
Input file: /data/retarget/locomotion/raw/AMASS_SMPLXG/GRAB/s1/cylindersmall_pick_all_stageii.npz
Output file: ../robot/ik_based/pkl/009043.pkl
Robot type: unitree_g1
Processing time: 1509.13 seconds

STEP-BY-STEP TIMING:
  Step 1 - Load SMPLX:        92.26s
  Step 2 - Align FPS:         224.56s
  Step 3 - Init Retarget:     41.80s
  Step 4 - Init Visualization: 0.00s
  Step 5 - Process Frames:    1115.86s (avg: 2.334s/frame)
  Step 6 - Convert Arrays:    0.08s
  Step 7 - Forward Kinematics: 17.80s
  Step 8 - Save Data:         0.20s
Status: SUCCESS
==================================================

=== SUCCESS LOG - 2025-10-14 14:44:18 ===
Input file: /data/retarget/locomotion/raw/AMASS_SMPLXG/GRAB/s1/cubelarge_inspect_1_stageii.npz
Output file: ../robot/ik_based/pkl/009015.pkl
Robot type: unitree_g1
Processing time: 1536.35 seconds

STEP-BY-STEP TIMING:
  Step 1 - Load SMPLX:        78.39s
  Step 2 - Align FPS:         222.59s
  Step 3 - Init Retarget:     57.55s
  Step 4 - Init Visualization: 0.18s
  Step 5 - Process Frames:    1146.77s (avg: 2.461s/frame)
  Step 6 - Convert Arrays:    0.00s
  Step 7 - Forward Kinematics: 17.10s
  Step 8 - Save Data:         0.38s
Status: SUCCESS
==================================================

=== SUCCESS LOG - 2025-10-14 14:44:41 ===
Input file: /data/retarget/locomotion/raw/AMASS_SMPLXG/GRAB/s1/camera_takepicture_2_stageii.npz
Output file: ../robot/ik_based/pkl/009013.pkl
Robot type: unitree_g1
Processing time: 1559.64 seconds

STEP-BY-STEP TIMING:
  Step 1 - Load SMPLX:        68.09s
  Step 2 - Align FPS:         221.86s
  Step 3 - Init Retarget:     65.61s
  Step 4 - Init Visualization: 0.11s
  Step 5 - Process Frames:    1175.15s (avg: 2.733s/frame)
  Step 6 - Convert Arrays:    0.02s
  Step 7 - Forward Kinematics: 15.18s
  Step 8 - Save Data:         0.29s
Status: SUCCESS
==================================================

=== ERROR LOG - 2025-10-14 14:44:49 ===
Input file: /data/retarget/locomotion/raw/AMASS_SMPLXG/GRAB/s1/male_stagei.npz
Output file: ../robot/ik_based/pkl/009087.pkl
Robot type: unitree_g1
Processing time: 102.93 seconds
Error message: 'pose_body is not a file in the archive'
Error type: KeyError
==================================================

=== SUCCESS LOG - 2025-10-14 14:45:16 ===
Input file: /data/retarget/locomotion/raw/AMASS_SMPLXG/GRAB/s1/elephant_offhand_1_stageii.npz
Output file: ../robot/ik_based/pkl/009053.pkl
Robot type: unitree_g1
Processing time: 841.89 seconds

STEP-BY-STEP TIMING:
  Step 1 - Load SMPLX:        113.09s
  Step 2 - Align FPS:         77.40s
  Step 3 - Init Retarget:     2.31s
  Step 4 - Init Visualization: 0.00s
  Step 5 - Process Frames:    615.72s (avg: 2.443s/frame)
  Step 6 - Convert Arrays:    0.02s
  Step 7 - Forward Kinematics: 19.70s
  Step 8 - Save Data:         0.45s
Status: SUCCESS
==================================================

=== SUCCESS LOG - 2025-10-14 14:46:20 ===
Input file: /data/retarget/locomotion/raw/AMASS_SMPLXG/GRAB/s1/elephant_pass_1_stageii.npz
Output file: ../robot/ik_based/pkl/009054.pkl
Robot type: unitree_g1
Processing time: 796.66 seconds

STEP-BY-STEP TIMING:
  Step 1 - Load SMPLX:        106.14s
  Step 2 - Align FPS:         69.33s
  Step 3 - Init Retarget:     2.71s
  Step 4 - Init Visualization: 0.06s
  Step 5 - Process Frames:    587.21s (avg: 2.610s/frame)
  Step 6 - Convert Arrays:    0.02s
  Step 7 - Forward Kinematics: 17.62s
  Step 8 - Save Data:         0.20s
Status: SUCCESS
==================================================

=== SUCCESS LOG - 2025-10-14 14:46:23 ===
Input file: /data/retarget/locomotion/raw/AMASS_SMPLXG/GRAB/s1/binoculars_see_1_stageii.npz
Output file: ../robot/ik_based/pkl/009003.pkl
Robot type: unitree_g1
Processing time: 1661.37 seconds

STEP-BY-STEP TIMING:
  Step 1 - Load SMPLX:        80.73s
  Step 2 - Align FPS:         222.92s
  Step 3 - Init Retarget:     54.53s
  Step 4 - Init Visualization: 0.09s
  Step 5 - Process Frames:    1268.42s (avg: 2.699s/frame)
  Step 6 - Convert Arrays:    0.02s
  Step 7 - Forward Kinematics: 17.62s
  Step 8 - Save Data:         0.38s
Status: SUCCESS
==================================================

=== SUCCESS LOG - 2025-10-14 14:47:14 ===
Input file: /data/retarget/locomotion/raw/AMASS_SMPLXG/GRAB/s1/flute_pass_1_stageii.npz
Output file: ../robot/ik_based/pkl/009067.pkl
Robot type: unitree_g1
Processing time: 686.18 seconds

STEP-BY-STEP TIMING:
  Step 1 - Load SMPLX:        98.09s
  Step 2 - Align FPS:         64.87s
  Step 3 - Init Retarget:     2.89s
  Step 4 - Init Visualization: 0.00s
  Step 5 - Process Frames:    486.87s (avg: 2.632s/frame)
  Step 6 - Convert Arrays:    0.00s
  Step 7 - Forward Kinematics: 18.12s
  Step 8 - Save Data:         0.20s
Status: SUCCESS
==================================================

=== SUCCESS LOG - 2025-10-14 14:47:35 ===
Input file: /data/retarget/locomotion/raw/AMASS_SMPLXG/GRAB/s1/elephant_inspect_1_stageii.npz
Output file: ../robot/ik_based/pkl/009052.pkl
Robot type: unitree_g1
Processing time: 1008.79 seconds

STEP-BY-STEP TIMING:
  Step 1 - Load SMPLX:        111.29s
  Step 2 - Align FPS:         92.76s
  Step 3 - Init Retarget:     3.12s
  Step 4 - Init Visualization: 0.04s
  Step 5 - Process Frames:    765.96s (avg: 2.495s/frame)
  Step 6 - Convert Arrays:    0.00s
  Step 7 - Forward Kinematics: 20.01s
  Step 8 - Save Data:         0.24s
Status: SUCCESS
==================================================

=== SUCCESS LOG - 2025-10-14 14:47:59 ===
Input file: /data/retarget/locomotion/raw/AMASS_SMPLXG/GRAB/s1/eyeglasses_pass_1_stageii.npz
Output file: ../robot/ik_based/pkl/009058.pkl
Robot type: unitree_g1
Processing time: 842.51 seconds

STEP-BY-STEP TIMING:
  Step 1 - Load SMPLX:        106.28s
  Step 2 - Align FPS:         72.66s
  Step 3 - Init Retarget:     8.73s
  Step 4 - Init Visualization: 0.21s
  Step 5 - Process Frames:    622.10s (avg: 2.365s/frame)
  Step 6 - Convert Arrays:    0.00s
  Step 7 - Forward Kinematics: 17.48s
  Step 8 - Save Data:         0.29s
Status: SUCCESS
==================================================

=== SUCCESS LOG - 2025-10-14 14:49:19 ===
Input file: /data/retarget/locomotion/raw/AMASS_SMPLXG/GRAB/s1/fryingpan_cook_2_stageii.npz
Output file: ../robot/ik_based/pkl/009071.pkl
Robot type: unitree_g1
Processing time: 747.31 seconds

STEP-BY-STEP TIMING:
  Step 1 - Load SMPLX:        106.91s
  Step 2 - Align FPS:         72.09s
  Step 3 - Init Retarget:     2.82s
  Step 4 - Init Visualization: 0.02s
  Step 5 - Process Frames:    535.45s (avg: 2.298s/frame)
  Step 6 - Convert Arrays:    0.00s
  Step 7 - Forward Kinematics: 16.54s
  Step 8 - Save Data:         0.33s
Status: SUCCESS
==================================================

=== SUCCESS LOG - 2025-10-14 14:49:22 ===
Input file: /data/retarget/locomotion/raw/AMASS_SMPLXG/GRAB/s1/flashlight_pass_1_stageii.npz
Output file: ../robot/ik_based/pkl/009064.pkl
Robot type: unitree_g1
Processing time: 828.24 seconds

STEP-BY-STEP TIMING:
  Step 1 - Load SMPLX:        94.87s
  Step 2 - Align FPS:         86.74s
  Step 3 - Init Retarget:     1.89s
  Step 4 - Init Visualization: 0.00s
  Step 5 - Process Frames:    613.79s (avg: 2.455s/frame)
  Step 6 - Convert Arrays:    0.04s
  Step 7 - Forward Kinematics: 16.96s
  Step 8 - Save Data:         0.24s
Status: SUCCESS
==================================================

=== SUCCESS LOG - 2025-10-14 14:50:34 ===
Input file: /data/retarget/locomotion/raw/AMASS_SMPLXG/GRAB/s1/flashlight_offhand_1_stageii.npz
Output file: ../robot/ik_based/pkl/009061.pkl
Robot type: unitree_g1
Processing time: 923.28 seconds

STEP-BY-STEP TIMING:
  Step 1 - Load SMPLX:        99.88s
  Step 2 - Align FPS:         85.14s
  Step 3 - Init Retarget:     2.63s
  Step 4 - Init Visualization: 0.00s
  Step 5 - Process Frames:    700.15s (avg: 2.714s/frame)
  Step 6 - Convert Arrays:    0.17s
  Step 7 - Forward Kinematics: 19.38s
  Step 8 - Save Data:         0.30s
Status: SUCCESS
==================================================

=== SUCCESS LOG - 2025-10-14 14:50:57 ===
Input file: /data/retarget/locomotion/raw/AMASS_SMPLXG/GRAB/s1/flute_offhand_1_stageii.npz
Output file: ../robot/ik_based/pkl/009066.pkl
Robot type: unitree_g1
Processing time: 910.33 seconds

STEP-BY-STEP TIMING:
  Step 1 - Load SMPLX:        100.26s
  Step 2 - Align FPS:         95.98s
  Step 3 - Init Retarget:     3.19s
  Step 4 - Init Visualization: 0.30s
  Step 5 - Process Frames:    675.56s (avg: 2.493s/frame)
  Step 6 - Convert Arrays:    0.00s
  Step 7 - Forward Kinematics: 18.07s
  Step 8 - Save Data:         0.52s
Status: SUCCESS
==================================================

=== SUCCESS LOG - 2025-10-14 14:51:25 ===
Input file: /data/retarget/locomotion/raw/AMASS_SMPLXG/GRAB/s1/camera_pick_all_stageii.npz
Output file: ../robot/ik_based/pkl/009011.pkl
Robot type: unitree_g1
Processing time: 1963.54 seconds

STEP-BY-STEP TIMING:
  Step 1 - Load SMPLX:        77.37s
  Step 2 - Align FPS:         300.27s
  Step 3 - Init Retarget:     2.21s
  Step 4 - Init Visualization: 0.09s
  Step 5 - Process Frames:    1550.41s (avg: 2.400s/frame)
  Step 6 - Convert Arrays:    0.01s
  Step 7 - Forward Kinematics: 19.13s
  Step 8 - Save Data:         0.20s
Status: SUCCESS
==================================================

=== SUCCESS LOG - 2025-10-14 14:52:17 ===
Input file: /data/retarget/locomotion/raw/AMASS_SMPLXG/GRAB/s1/hammer_pass_1_stageii.npz
Output file: ../robot/ik_based/pkl/009075.pkl
Robot type: unitree_g1
Processing time: 874.11 seconds

STEP-BY-STEP TIMING:
  Step 1 - Load SMPLX:        102.15s
  Step 2 - Align FPS:         81.12s
  Step 3 - Init Retarget:     2.34s
  Step 4 - Init Visualization: 0.00s
  Step 5 - Process Frames:    657.62s (avg: 2.662s/frame)
  Step 6 - Convert Arrays:    0.00s
  Step 7 - Forward Kinematics: 18.65s
  Step 8 - Save Data:         0.14s
Status: SUCCESS
==================================================

=== SUCCESS LOG - 2025-10-14 14:52:19 ===
Input file: /data/retarget/locomotion/raw/AMASS_SMPLXG/GRAB/s1/hammer_use_1_stageii.npz
Output file: ../robot/ik_based/pkl/009076.pkl
Robot type: unitree_g1
Processing time: 854.74 seconds

STEP-BY-STEP TIMING:
  Step 1 - Load SMPLX:        110.31s
  Step 2 - Align FPS:         78.66s
  Step 3 - Init Retarget:     2.61s
  Step 4 - Init Visualization: 0.02s
  Step 5 - Process Frames:    632.18s (avg: 2.368s/frame)
  Step 6 - Convert Arrays:    0.00s
  Step 7 - Forward Kinematics: 16.72s
  Step 8 - Save Data:         0.26s
Status: SUCCESS
==================================================

=== SUCCESS LOG - 2025-10-14 14:52:23 ===
Input file: /data/retarget/locomotion/raw/AMASS_SMPLXG/GRAB/s1/cylindermedium_pick_all_stageii.npz
Output file: ../robot/ik_based/pkl/009039.pkl
Robot type: unitree_g1
Processing time: 2021.57 seconds

STEP-BY-STEP TIMING:
  Step 1 - Load SMPLX:        89.80s
  Step 2 - Align FPS:         298.78s
  Step 3 - Init Retarget:     3.07s
  Step 4 - Init Visualization: 0.02s
  Step 5 - Process Frames:    1598.40s (avg: 2.433s/frame)
  Step 6 - Convert Arrays:    0.02s
  Step 7 - Forward Kinematics: 18.02s
  Step 8 - Save Data:         0.15s
Status: SUCCESS
==================================================

=== SUCCESS LOG - 2025-10-14 14:52:49 ===
Input file: /data/retarget/locomotion/raw/AMASS_SMPLXG/GRAB/s1/duck_pick_all_stageii.npz
Output file: ../robot/ik_based/pkl/009051.pkl
Robot type: unitree_g1
Processing time: 1378.37 seconds

STEP-BY-STEP TIMING:
  Step 1 - Load SMPLX:        113.93s
  Step 2 - Align FPS:         139.39s
  Step 3 - Init Retarget:     2.33s
  Step 4 - Init Visualization: 0.01s
  Step 5 - Process Frames:    1092.44s (avg: 2.207s/frame)
  Step 6 - Convert Arrays:    0.00s
  Step 7 - Forward Kinematics: 15.96s
  Step 8 - Save Data:         0.20s
Status: SUCCESS
==================================================

=== SUCCESS LOG - 2025-10-14 14:52:53 ===
Input file: /data/retarget/locomotion/raw/AMASS_SMPLXG/GRAB/s1/cubemedium_pick_all_stageii.npz
Output file: ../robot/ik_based/pkl/009022.pkl
Robot type: unitree_g1
Processing time: 2051.68 seconds

STEP-BY-STEP TIMING:
  Step 1 - Load SMPLX:        89.76s
  Step 2 - Align FPS:         306.37s
  Step 3 - Init Retarget:     2.21s
  Step 4 - Init Visualization: 0.00s
  Step 5 - Process Frames:    1625.17s (avg: 2.302s/frame)
  Step 6 - Convert Arrays:    0.03s
  Step 7 - Forward Kinematics: 14.84s
  Step 8 - Save Data:         0.39s
Status: SUCCESS
==================================================

=== SUCCESS LOG - 2025-10-14 14:52:55 ===
Input file: /data/retarget/locomotion/raw/AMASS_SMPLXG/GRAB/s1/gamecontroller_offhand_1_stageii.npz
Output file: ../robot/ik_based/pkl/009072.pkl
Robot type: unitree_g1
Processing time: 946.66 seconds

STEP-BY-STEP TIMING:
  Step 1 - Load SMPLX:        103.42s
  Step 2 - Align FPS:         98.86s
  Step 3 - Init Retarget:     2.29s
  Step 4 - Init Visualization: 0.17s
  Step 5 - Process Frames:    713.06s (avg: 2.369s/frame)
  Step 6 - Convert Arrays:    0.00s
  Step 7 - Forward Kinematics: 15.47s
  Step 8 - Save Data:         0.17s
Status: SUCCESS
==================================================

=== SUCCESS LOG - 2025-10-14 14:53:49 ===
Input file: /data/retarget/locomotion/raw/AMASS_SMPLXG/GRAB/s1/bowl_pick_all_stageii.npz
Output file: ../robot/ik_based/pkl/009007.pkl
Robot type: unitree_g1
Processing time: 2107.85 seconds

STEP-BY-STEP TIMING:
  Step 1 - Load SMPLX:        71.54s
  Step 2 - Align FPS:         299.15s
  Step 3 - Init Retarget:     2.59s
  Step 4 - Init Visualization: 0.02s
  Step 5 - Process Frames:    1703.10s (avg: 2.516s/frame)
  Step 6 - Convert Arrays:    0.03s
  Step 7 - Forward Kinematics: 15.67s
  Step 8 - Save Data:         0.50s
Status: SUCCESS
==================================================

=== SUCCESS LOG - 2025-10-14 14:53:54 ===
Input file: /data/retarget/locomotion/raw/AMASS_SMPLXG/GRAB/s1/hand_pass_1_stageii.npz
Output file: ../robot/ik_based/pkl/009081.pkl
Robot type: unitree_g1
Processing time: 846.97 seconds

STEP-BY-STEP TIMING:
  Step 1 - Load SMPLX:        105.95s
  Step 2 - Align FPS:         75.75s
  Step 3 - Init Retarget:     9.12s
  Step 4 - Init Visualization: 0.00s
  Step 5 - Process Frames:    625.55s (avg: 2.596s/frame)
  Step 6 - Convert Arrays:    0.00s
  Step 7 - Forward Kinematics: 16.96s
  Step 8 - Save Data:         0.12s
Status: SUCCESS
==================================================

=== SUCCESS LOG - 2025-10-14 14:54:01 ===
Input file: /data/retarget/locomotion/raw/AMASS_SMPLXG/GRAB/s1/flashlight_on_1_stageii.npz
Output file: ../robot/ik_based/pkl/009062.pkl
Robot type: unitree_g1
Processing time: 1122.24 seconds

STEP-BY-STEP TIMING:
  Step 1 - Load SMPLX:        100.30s
  Step 2 - Align FPS:         117.58s
  Step 3 - Init Retarget:     2.94s
  Step 4 - Init Visualization: 0.03s
  Step 5 - Process Frames:    871.27s (avg: 2.420s/frame)
  Step 6 - Convert Arrays:    0.05s
  Step 7 - Forward Kinematics: 15.49s
  Step 8 - Save Data:         0.22s
Status: SUCCESS
==================================================

=== SUCCESS LOG - 2025-10-14 14:54:18 ===
Input file: /data/retarget/locomotion/raw/AMASS_SMPLXG/GRAB/s1/eyeglasses_clean_1_stageii.npz
Output file: ../robot/ik_based/pkl/009056.pkl
Robot type: unitree_g1
Processing time: 1261.67 seconds

STEP-BY-STEP TIMING:
  Step 1 - Load SMPLX:        104.63s
  Step 2 - Align FPS:         115.31s
  Step 3 - Init Retarget:     10.52s
  Step 4 - Init Visualization: 0.02s
  Step 5 - Process Frames:    1001.55s (avg: 2.297s/frame)
  Step 6 - Convert Arrays:    0.14s
  Step 7 - Forward Kinematics: 16.53s
  Step 8 - Save Data:         0.15s
Status: SUCCESS
==================================================

=== SUCCESS LOG - 2025-10-14 14:54:23 ===
Input file: /data/retarget/locomotion/raw/AMASS_SMPLXG/GRAB/s1/flashlight_on_2_stageii.npz
Output file: ../robot/ik_based/pkl/009063.pkl
Robot type: unitree_g1
Processing time: 1129.51 seconds

STEP-BY-STEP TIMING:
  Step 1 - Load SMPLX:        96.80s
  Step 2 - Align FPS:         117.38s
  Step 3 - Init Retarget:     2.49s
  Step 4 - Init Visualization: 0.01s
  Step 5 - Process Frames:    883.64s (avg: 2.283s/frame)
  Step 6 - Convert Arrays:    0.00s
  Step 7 - Forward Kinematics: 15.58s
  Step 8 - Save Data:         0.71s
Status: SUCCESS
==================================================

=== SUCCESS LOG - 2025-10-14 14:54:24 ===
Input file: /data/retarget/locomotion/raw/AMASS_SMPLXG/GRAB/s1/headphones_pass_1_stageii.npz
Output file: ../robot/ik_based/pkl/009083.pkl
Robot type: unitree_g1
Processing time: 832.14 seconds

STEP-BY-STEP TIMING:
  Step 1 - Load SMPLX:        109.00s
  Step 2 - Align FPS:         75.20s
  Step 3 - Init Retarget:     3.32s
  Step 4 - Init Visualization: 0.00s
  Step 5 - Process Frames:    614.58s (avg: 2.540s/frame)
  Step 6 - Convert Arrays:    0.01s
  Step 7 - Forward Kinematics: 15.33s
  Step 8 - Save Data:         0.39s
Status: SUCCESS
==================================================

=== SUCCESS LOG - 2025-10-14 14:54:37 ===
Input file: /data/retarget/locomotion/raw/AMASS_SMPLXG/GRAB/s1/eyeglasses_wear_1_stageii.npz
Output file: ../robot/ik_based/pkl/009060.pkl
Robot type: unitree_g1
Processing time: 1167.11 seconds

STEP-BY-STEP TIMING:
  Step 1 - Load SMPLX:        97.46s
  Step 2 - Align FPS:         114.64s
  Step 3 - Init Retarget:     2.43s
  Step 4 - Init Visualization: 0.00s
  Step 5 - Process Frames:    924.30s (avg: 2.458s/frame)
  Step 6 - Convert Arrays:    0.02s
  Step 7 - Forward Kinematics: 15.51s
  Step 8 - Save Data:         0.31s
Status: SUCCESS
==================================================

=== SUCCESS LOG - 2025-10-14 14:54:39 ===
Input file: /data/retarget/locomotion/raw/AMASS_SMPLXG/GRAB/s1/fryingpan_cook_1_stageii.npz
Output file: ../robot/ik_based/pkl/009070.pkl
Robot type: unitree_g1
Processing time: 1070.85 seconds

STEP-BY-STEP TIMING:
  Step 1 - Load SMPLX:        111.72s
  Step 2 - Align FPS:         107.65s
  Step 3 - Init Retarget:     2.00s
  Step 4 - Init Visualization: 0.00s
  Step 5 - Process Frames:    820.01s (avg: 2.377s/frame)
  Step 6 - Convert Arrays:    0.00s
  Step 7 - Forward Kinematics: 15.51s
  Step 8 - Save Data:         0.17s
Status: SUCCESS
==================================================

=== SUCCESS LOG - 2025-10-14 14:54:52 ===
Input file: /data/retarget/locomotion/raw/AMASS_SMPLXG/GRAB/s1/binoculars_pick_all_stageii.npz
Output file: ../robot/ik_based/pkl/009002.pkl
Robot type: unitree_g1
Processing time: 2171.01 seconds

STEP-BY-STEP TIMING:
  Step 1 - Load SMPLX:        83.78s
  Step 2 - Align FPS:         318.10s
  Step 3 - Init Retarget:     2.39s
  Step 4 - Init Visualization: 0.00s
  Step 5 - Process Frames:    1740.00s (avg: 2.390s/frame)
  Step 6 - Convert Arrays:    0.07s
  Step 7 - Forward Kinematics: 14.54s
  Step 8 - Save Data:         0.27s
Status: SUCCESS
==================================================

=== SUCCESS LOG - 2025-10-14 14:55:11 ===
Input file: /data/retarget/locomotion/raw/AMASS_SMPLXG/GRAB/s1/hand_inspect_1_stageii.npz
Output file: ../robot/ik_based/pkl/009079.pkl
Robot type: unitree_g1
Processing time: 943.81 seconds

STEP-BY-STEP TIMING:
  Step 1 - Load SMPLX:        108.91s
  Step 2 - Align FPS:         92.75s
  Step 3 - Init Retarget:     8.64s
  Step 4 - Init Visualization: 0.13s
  Step 5 - Process Frames:    703.99s (avg: 2.419s/frame)
  Step 6 - Convert Arrays:    0.03s
  Step 7 - Forward Kinematics: 15.07s
  Step 8 - Save Data:         0.36s
Status: SUCCESS
==================================================

=== SUCCESS LOG - 2025-10-14 14:55:33 ===
Input file: /data/retarget/locomotion/raw/AMASS_SMPLXG/GRAB/s1/eyeglasses_offhand_1_stageii.npz
Output file: ../robot/ik_based/pkl/009057.pkl
Robot type: unitree_g1
Processing time: 1323.28 seconds

STEP-BY-STEP TIMING:
  Step 1 - Load SMPLX:        106.84s
  Step 2 - Align FPS:         107.26s
  Step 3 - Init Retarget:     4.22s
  Step 4 - Init Visualization: 0.00s
  Step 5 - Process Frames:    1079.21s (avg: 2.613s/frame)
  Step 6 - Convert Arrays:    0.01s
  Step 7 - Forward Kinematics: 14.34s
  Step 8 - Save Data:         0.37s
Status: SUCCESS
==================================================

=== SUCCESS LOG - 2025-10-14 14:55:39 ===
Input file: /data/retarget/locomotion/raw/AMASS_SMPLXG/GRAB/s1/mouse_pass_1_stageii.npz
Output file: ../robot/ik_based/pkl/009089.pkl
Robot type: unitree_g1
Processing time: 677.35 seconds

STEP-BY-STEP TIMING:
  Step 1 - Load SMPLX:        107.94s
  Step 2 - Align FPS:         60.61s
  Step 3 - Init Retarget:     2.31s
  Step 4 - Init Visualization: 0.02s
  Step 5 - Process Frames:    477.06s (avg: 2.385s/frame)
  Step 6 - Convert Arrays:    0.00s
  Step 7 - Forward Kinematics: 16.04s
  Step 8 - Save Data:         0.36s
Status: SUCCESS
==================================================

=== SUCCESS LOG - 2025-10-14 14:55:51 ===
Input file: /data/retarget/locomotion/raw/AMASS_SMPLXG/GRAB/s1/hand_offhand_1_stageii.npz
Output file: ../robot/ik_based/pkl/009080.pkl
Robot type: unitree_g1
Processing time: 972.55 seconds

STEP-BY-STEP TIMING:
  Step 1 - Load SMPLX:        106.85s
  Step 2 - Align FPS:         94.61s
  Step 3 - Init Retarget:     4.24s
  Step 4 - Init Visualization: 0.07s
  Step 5 - Process Frames:    738.34s (avg: 2.359s/frame)
  Step 6 - Convert Arrays:    0.04s
  Step 7 - Forward Kinematics: 16.04s
  Step 8 - Save Data:         0.23s
Status: SUCCESS
==================================================

=== SUCCESS LOG - 2025-10-14 14:56:04 ===
Input file: /data/retarget/locomotion/raw/AMASS_SMPLXG/GRAB/s1/mouse_offhand_1_stageii.npz
Output file: ../robot/ik_based/pkl/009088.pkl
Robot type: unitree_g1
Processing time: 729.46 seconds

STEP-BY-STEP TIMING:
  Step 1 - Load SMPLX:        109.90s
  Step 2 - Align FPS:         66.11s
  Step 3 - Init Retarget:     3.07s
  Step 4 - Init Visualization: 0.02s
  Step 5 - Process Frames:    518.42s (avg: 2.389s/frame)
  Step 6 - Convert Arrays:    0.03s
  Step 7 - Forward Kinematics: 16.75s
  Step 8 - Save Data:         0.33s
Status: SUCCESS
==================================================

=== SUCCESS LOG - 2025-10-14 14:56:50 ===
Input file: /data/retarget/locomotion/raw/AMASS_SMPLXG/GRAB/s1/headphones_offhand_1_stageii.npz
Output file: ../robot/ik_based/pkl/009082.pkl
Robot type: unitree_g1
Processing time: 995.56 seconds

STEP-BY-STEP TIMING:
  Step 1 - Load SMPLX:        106.66s
  Step 2 - Align FPS:         89.88s
  Step 3 - Init Retarget:     2.41s
  Step 4 - Init Visualization: 0.00s
  Step 5 - Process Frames:    764.27s (avg: 2.635s/frame)
  Step 6 - Convert Arrays:    0.00s
  Step 7 - Forward Kinematics: 18.92s
  Step 8 - Save Data:         0.22s
Status: SUCCESS
==================================================

=== SUCCESS LOG - 2025-10-14 14:57:04 ===
Input file: /data/retarget/locomotion/raw/AMASS_SMPLXG/GRAB/s1/headphones_use_1_stageii.npz
Output file: ../robot/ik_based/pkl/009084.pkl
Robot type: unitree_g1
Processing time: 929.91 seconds

STEP-BY-STEP TIMING:
  Step 1 - Load SMPLX:        112.60s
  Step 2 - Align FPS:         79.12s
  Step 3 - Init Retarget:     2.35s
  Step 4 - Init Visualization: 0.00s
  Step 5 - Process Frames:    704.30s (avg: 2.628s/frame)
  Step 6 - Convert Arrays:    0.00s
  Step 7 - Forward Kinematics: 17.26s
  Step 8 - Save Data:         0.17s
Status: SUCCESS
==================================================

=== SUCCESS LOG - 2025-10-14 14:57:22 ===
Input file: /data/retarget/locomotion/raw/AMASS_SMPLXG/GRAB/s1/flute_play_1_stageii.npz
Output file: ../robot/ik_based/pkl/009069.pkl
Robot type: unitree_g1
Processing time: 1255.61 seconds

STEP-BY-STEP TIMING:
  Step 1 - Load SMPLX:        98.57s
  Step 2 - Align FPS:         131.35s
  Step 3 - Init Retarget:     3.20s
  Step 4 - Init Visualization: 0.00s
  Step 5 - Process Frames:    988.95s (avg: 2.243s/frame)
  Step 6 - Convert Arrays:    0.00s
  Step 7 - Forward Kinematics: 17.40s
  Step 8 - Save Data:         0.54s
Status: SUCCESS
==================================================

=== SUCCESS LOG - 2025-10-14 14:57:30 ===
Input file: /data/retarget/locomotion/raw/AMASS_SMPLXG/GRAB/s1/flashlight_pick_all_stageii.npz
Output file: ../robot/ik_based/pkl/009065.pkl
Robot type: unitree_g1
Processing time: 1308.47 seconds

STEP-BY-STEP TIMING:
  Step 1 - Load SMPLX:        97.88s
  Step 2 - Align FPS:         139.11s
  Step 3 - Init Retarget:     4.26s
  Step 4 - Init Visualization: 0.07s
  Step 5 - Process Frames:    1035.07s (avg: 2.305s/frame)
  Step 6 - Convert Arrays:    0.00s
  Step 7 - Forward Kinematics: 18.39s
  Step 8 - Save Data:         0.27s
Status: SUCCESS
==================================================

=== SUCCESS LOG - 2025-10-14 14:58:01 ===
Input file: /data/retarget/locomotion/raw/AMASS_SMPLXG/GRAB/s1/cubesmall_pick_all_stageii.npz
Output file: ../robot/ik_based/pkl/009026.pkl
Robot type: unitree_g1
Processing time: 2360.25 seconds

STEP-BY-STEP TIMING:
  Step 1 - Load SMPLX:        93.53s
  Step 2 - Align FPS:         356.56s
  Step 3 - Init Retarget:     3.88s
  Step 4 - Init Visualization: 0.05s
  Step 5 - Process Frames:    1873.48s (avg: 2.348s/frame)
  Step 6 - Convert Arrays:    0.08s
  Step 7 - Forward Kinematics: 15.36s
  Step 8 - Save Data:         0.21s
Status: SUCCESS
==================================================

=== SUCCESS LOG - 2025-10-14 14:58:16 ===
Input file: /data/retarget/locomotion/raw/AMASS_SMPLXG/GRAB/s1/lightbulb_pass_1_stageii.npz
Output file: ../robot/ik_based/pkl/009086.pkl
Robot type: unitree_g1
Processing time: 917.24 seconds

STEP-BY-STEP TIMING:
  Step 1 - Load SMPLX:        101.76s
  Step 2 - Align FPS:         86.99s
  Step 3 - Init Retarget:     2.37s
  Step 4 - Init Visualization: 0.03s
  Step 5 - Process Frames:    690.31s (avg: 2.501s/frame)
  Step 6 - Convert Arrays:    0.09s
  Step 7 - Forward Kinematics: 19.19s
  Step 8 - Save Data:         0.26s
Status: SUCCESS
==================================================

=== SUCCESS LOG - 2025-10-14 14:58:36 ===
Input file: /data/retarget/locomotion/raw/AMASS_SMPLXG/GRAB/s1/cubelarge_pick_all_stageii.npz
Output file: ../robot/ik_based/pkl/009018.pkl
Robot type: unitree_g1
Processing time: 2394.65 seconds

STEP-BY-STEP TIMING:
  Step 1 - Load SMPLX:        92.00s
  Step 2 - Align FPS:         360.05s
  Step 3 - Init Retarget:     3.20s
  Step 4 - Init Visualization: 0.00s
  Step 5 - Process Frames:    1903.89s (avg: 2.308s/frame)
  Step 6 - Convert Arrays:    0.00s
  Step 7 - Forward Kinematics: 19.08s
  Step 8 - Save Data:         0.26s
Status: SUCCESS
==================================================

=== SUCCESS LOG - 2025-10-14 15:00:38 ===
Input file: /data/retarget/locomotion/raw/AMASS_SMPLXG/GRAB/s1/hammer_use_2_stageii.npz
Output file: ../robot/ik_based/pkl/009077.pkl
Robot type: unitree_g1
Processing time: 1322.33 seconds

STEP-BY-STEP TIMING:
  Step 1 - Load SMPLX:        109.81s
  Step 2 - Align FPS:         115.67s
  Step 3 - Init Retarget:     2.67s
  Step 4 - Init Visualization: 0.01s
  Step 5 - Process Frames:    1062.06s (avg: 2.603s/frame)
  Step 6 - Convert Arrays:    0.08s
  Step 7 - Forward Kinematics: 17.23s
  Step 8 - Save Data:         0.24s
Status: SUCCESS
==================================================

=== SUCCESS LOG - 2025-10-14 15:00:55 ===
Input file: /data/retarget/locomotion/raw/AMASS_SMPLXG/GRAB/s1/mug_pass_1_stageii.npz
Output file: ../robot/ik_based/pkl/009097.pkl
Robot type: unitree_g1
Processing time: 772.43 seconds

STEP-BY-STEP TIMING:
  Step 1 - Load SMPLX:        113.42s
  Step 2 - Align FPS:         79.08s
  Step 3 - Init Retarget:     2.36s
  Step 4 - Init Visualization: 0.04s
  Step 5 - Process Frames:    545.21s (avg: 2.330s/frame)
  Step 6 - Convert Arrays:    0.06s
  Step 7 - Forward Kinematics: 17.26s
  Step 8 - Save Data:         0.38s
Status: SUCCESS
==================================================

=== SUCCESS LOG - 2025-10-14 15:01:39 ===
Input file: /data/retarget/locomotion/raw/AMASS_SMPLXG/GRAB/s1/flute_pick_all_stageii.npz
Output file: ../robot/ik_based/pkl/009068.pkl
Robot type: unitree_g1
Processing time: 1526.34 seconds

STEP-BY-STEP TIMING:
  Step 1 - Load SMPLX:        99.60s
  Step 2 - Align FPS:         141.81s
  Step 3 - Init Retarget:     3.41s
  Step 4 - Init Visualization: 0.11s
  Step 5 - Process Frames:    1249.17s (avg: 2.498s/frame)
  Step 6 - Convert Arrays:    0.05s
  Step 7 - Forward Kinematics: 17.05s
  Step 8 - Save Data:         0.15s
Status: SUCCESS
==================================================

=== SUCCESS LOG - 2025-10-14 15:01:43 ===
Input file: /data/retarget/locomotion/raw/AMASS_SMPLXG/GRAB/s1/eyeglasses_pick_all_stageii.npz
Output file: ../robot/ik_based/pkl/009059.pkl
Robot type: unitree_g1
Processing time: 1596.05 seconds

STEP-BY-STEP TIMING:
  Step 1 - Load SMPLX:        99.50s
  Step 2 - Align FPS:         193.76s
  Step 3 - Init Retarget:     2.23s
  Step 4 - Init Visualization: 0.00s
  Step 5 - Process Frames:    1268.23s (avg: 2.265s/frame)
  Step 6 - Convert Arrays:    0.04s
  Step 7 - Forward Kinematics: 17.84s
  Step 8 - Save Data:         0.35s
Status: SUCCESS
==================================================

=== SUCCESS LOG - 2025-10-14 15:01:54 ===
Input file: /data/retarget/locomotion/raw/AMASS_SMPLXG/GRAB/s1/elephant_pick_all_stageii.npz
Output file: ../robot/ik_based/pkl/009055.pkl
Robot type: unitree_g1
Processing time: 1727.29 seconds

STEP-BY-STEP TIMING:
  Step 1 - Load SMPLX:        105.61s
  Step 2 - Align FPS:         184.22s
  Step 3 - Init Retarget:     2.37s
  Step 4 - Init Visualization: 0.01s
  Step 5 - Process Frames:    1403.85s (avg: 2.313s/frame)
  Step 6 - Convert Arrays:    0.02s
  Step 7 - Forward Kinematics: 16.31s
  Step 8 - Save Data:         0.23s
Status: SUCCESS
==================================================

=== SUCCESS LOG - 2025-10-14 15:02:06 ===
Input file: /data/retarget/locomotion/raw/AMASS_SMPLXG/GRAB/s1/mug_offhand_1_stageii.npz
Output file: ../robot/ik_based/pkl/009096.pkl
Robot type: unitree_g1
Processing time: 867.73 seconds

STEP-BY-STEP TIMING:
  Step 1 - Load SMPLX:        109.22s
  Step 2 - Align FPS:         91.20s
  Step 3 - Init Retarget:     1.97s
  Step 4 - Init Visualization: 0.03s
  Step 5 - Process Frames:    634.55s (avg: 2.324s/frame)
  Step 6 - Convert Arrays:    0.03s
  Step 7 - Forward Kinematics: 16.99s
  Step 8 - Save Data:         0.23s
Status: SUCCESS
==================================================

=== SUCCESS LOG - 2025-10-14 15:02:33 ===
Input file: /data/retarget/locomotion/raw/AMASS_SMPLXG/GRAB/s1/hammer_use_3_stageii.npz
Output file: ../robot/ik_based/pkl/009078.pkl
Robot type: unitree_g1
Processing time: 1388.97 seconds

STEP-BY-STEP TIMING:
  Step 1 - Load SMPLX:        108.83s
  Step 2 - Align FPS:         128.34s
  Step 3 - Init Retarget:     1.99s
  Step 4 - Init Visualization: 0.00s
  Step 5 - Process Frames:    1120.57s (avg: 2.496s/frame)
  Step 6 - Convert Arrays:    0.00s
  Step 7 - Forward Kinematics: 15.33s
  Step 8 - Save Data:         0.38s
Status: SUCCESS
==================================================

=== SUCCESS LOG - 2025-10-14 15:02:35 ===
Input file: /data/retarget/locomotion/raw/AMASS_SMPLXG/GRAB/s1/mug_drink_1_stageii.npz
Output file: ../robot/ik_based/pkl/009092.pkl
Robot type: unitree_g1
Processing time: 1036.19 seconds

STEP-BY-STEP TIMING:
  Step 1 - Load SMPLX:        105.53s
  Step 2 - Align FPS:         98.30s
  Step 3 - Init Retarget:     2.79s
  Step 4 - Init Visualization: 0.01s
  Step 5 - Process Frames:    799.32s (avg: 2.400s/frame)
  Step 6 - Convert Arrays:    0.03s
  Step 7 - Forward Kinematics: 16.35s
  Step 8 - Save Data:         0.40s
Status: SUCCESS
==================================================

=== SUCCESS LOG - 2025-10-14 15:02:49 ===
Input file: /data/retarget/locomotion/raw/AMASS_SMPLXG/GRAB/s1/cylinderlarge_pick_all_stageii.npz
Output file: ../robot/ik_based/pkl/009035.pkl
Robot type: unitree_g1
Processing time: 2647.61 seconds

STEP-BY-STEP TIMING:
  Step 1 - Load SMPLX:        92.78s
  Step 2 - Align FPS:         423.99s
  Step 3 - Init Retarget:     3.63s
  Step 4 - Init Visualization: 0.00s
  Step 5 - Process Frames:    2095.34s (avg: 2.234s/frame)
  Step 6 - Convert Arrays:    0.04s
  Step 7 - Forward Kinematics: 15.34s
  Step 8 - Save Data:         0.30s
Status: SUCCESS
==================================================

=== SUCCESS LOG - 2025-10-14 15:03:14 ===
Input file: /data/retarget/locomotion/raw/AMASS_SMPLXG/GRAB/s1/mouse_pick_all_stageii.npz
Output file: ../robot/ik_based/pkl/009090.pkl
Robot type: unitree_g1
Processing time: 1109.17 seconds

STEP-BY-STEP TIMING:
  Step 1 - Load SMPLX:        106.18s
  Step 2 - Align FPS:         107.27s
  Step 3 - Init Retarget:     2.95s
  Step 4 - Init Visualization: 0.00s
  Step 5 - Process Frames:    868.61s (avg: 2.341s/frame)
  Step 6 - Convert Arrays:    0.03s
  Step 7 - Forward Kinematics: 14.01s
  Step 8 - Save Data:         0.09s
Status: SUCCESS
==================================================

=== SUCCESS LOG - 2025-10-14 15:03:35 ===
Input file: /data/retarget/locomotion/raw/AMASS_SMPLXG/GRAB/s1/gamecontroller_play_1_stageii.npz
Output file: ../robot/ik_based/pkl/009074.pkl
Robot type: unitree_g1
Processing time: 1558.66 seconds

STEP-BY-STEP TIMING:
  Step 1 - Load SMPLX:        109.90s
  Step 2 - Align FPS:         188.09s
  Step 3 - Init Retarget:     2.62s
  Step 4 - Init Visualization: 0.03s
  Step 5 - Process Frames:    1230.72s (avg: 2.309s/frame)
  Step 6 - Convert Arrays:    0.19s
  Step 7 - Forward Kinematics: 13.77s
  Step 8 - Save Data:         0.39s
Status: SUCCESS
==================================================

=== SUCCESS LOG - 2025-10-14 15:03:48 ===
Input file: /data/retarget/locomotion/raw/AMASS_SMPLXG/GRAB/s1/mug_drink_3_stageii.npz
Output file: ../robot/ik_based/pkl/009094.pkl
Robot type: unitree_g1
Processing time: 1041.05 seconds

STEP-BY-STEP TIMING:
  Step 1 - Load SMPLX:        109.31s
  Step 2 - Align FPS:         97.10s
  Step 3 - Init Retarget:     8.59s
  Step 4 - Init Visualization: 0.15s
  Step 5 - Process Frames:    795.83s (avg: 2.576s/frame)
  Step 6 - Convert Arrays:    0.04s
  Step 7 - Forward Kinematics: 14.85s
  Step 8 - Save Data:         0.21s
Status: SUCCESS
==================================================

=== SUCCESS LOG - 2025-10-14 15:04:06 ===
Input file: /data/retarget/locomotion/raw/AMASS_SMPLXG/GRAB/s1/mug_drink_4_stageii.npz
Output file: ../robot/ik_based/pkl/009095.pkl
Robot type: unitree_g1
Processing time: 1009.46 seconds

STEP-BY-STEP TIMING:
  Step 1 - Load SMPLX:        112.27s
  Step 2 - Align FPS:         105.06s
  Step 3 - Init Retarget:     2.24s
  Step 4 - Init Visualization: 0.08s
  Step 5 - Process Frames:    756.16s (avg: 2.529s/frame)
  Step 6 - Convert Arrays:    0.00s
  Step 7 - Forward Kinematics: 18.64s
  Step 8 - Save Data:         0.56s
Status: SUCCESS
==================================================

=== SUCCESS LOG - 2025-10-14 15:04:11 ===
Input file: /data/retarget/locomotion/raw/AMASS_SMPLXG/GRAB/s1/phone_pass_1_stageii.npz
Output file: ../robot/ik_based/pkl/009102.pkl
Robot type: unitree_g1
Processing time: 762.21 seconds

STEP-BY-STEP TIMING:
  Step 1 - Load SMPLX:        107.10s
  Step 2 - Align FPS:         65.88s
  Step 3 - Init Retarget:     7.58s
  Step 4 - Init Visualization: 0.10s
  Step 5 - Process Frames:    550.41s (avg: 2.404s/frame)
  Step 6 - Convert Arrays:    0.01s
  Step 7 - Forward Kinematics: 15.78s
  Step 8 - Save Data:         0.22s
Status: SUCCESS
==================================================

=== SUCCESS LOG - 2025-10-14 15:05:29 ===
Input file: /data/retarget/locomotion/raw/AMASS_SMPLXG/GRAB/s1/mug_drink_2_stageii.npz
Output file: ../robot/ik_based/pkl/009093.pkl
Robot type: unitree_g1
Processing time: 1145.64 seconds

STEP-BY-STEP TIMING:
  Step 1 - Load SMPLX:        109.10s
  Step 2 - Align FPS:         106.09s
  Step 3 - Init Retarget:     8.69s
  Step 4 - Init Visualization: 0.02s
  Step 5 - Process Frames:    887.65s (avg: 2.355s/frame)
  Step 6 - Convert Arrays:    0.05s
  Step 7 - Forward Kinematics: 19.10s
  Step 8 - Save Data:         0.14s
Status: SUCCESS
==================================================

=== SUCCESS LOG - 2025-10-14 15:06:44 ===
Input file: /data/retarget/locomotion/raw/AMASS_SMPLXG/GRAB/s1/mug_toast_1_stageii.npz
Output file: ../robot/ik_based/pkl/009099.pkl
Robot type: unitree_g1
Processing time: 1036.66 seconds

STEP-BY-STEP TIMING:
  Step 1 - Load SMPLX:        116.57s
  Step 2 - Align FPS:         97.93s
  Step 3 - Init Retarget:     2.21s
  Step 4 - Init Visualization: 0.00s
  Step 5 - Process Frames:    784.59s (avg: 2.335s/frame)
  Step 6 - Convert Arrays:    0.00s
  Step 7 - Forward Kinematics: 19.22s
  Step 8 - Save Data:         0.28s
Status: SUCCESS
==================================================

=== SUCCESS LOG - 2025-10-14 15:07:10 ===
Input file: /data/retarget/locomotion/raw/AMASS_SMPLXG/GRAB/s1/pyramidmedium_offhand_1_stageii.npz
Output file: ../robot/ik_based/pkl/009113.pkl
Robot type: unitree_g1
Processing time: 763.54 seconds

STEP-BY-STEP TIMING:
  Step 1 - Load SMPLX:        98.65s
  Step 2 - Align FPS:         76.65s
  Step 3 - Init Retarget:     2.49s
  Step 4 - Init Visualization: 0.10s
  Step 5 - Process Frames:    554.25s (avg: 2.442s/frame)
  Step 6 - Convert Arrays:    0.00s
  Step 7 - Forward Kinematics: 16.24s
  Step 8 - Save Data:         0.33s
Status: SUCCESS
==================================================

=== SUCCESS LOG - 2025-10-14 15:07:24 ===
Input file: /data/retarget/locomotion/raw/AMASS_SMPLXG/GRAB/s1/pyramidlarge_pass_1_stageii.npz
Output file: ../robot/ik_based/pkl/009110.pkl
Robot type: unitree_g1
Processing time: 807.12 seconds

STEP-BY-STEP TIMING:
  Step 1 - Load SMPLX:        100.73s
  Step 2 - Align FPS:         81.09s
  Step 3 - Init Retarget:     1.89s
  Step 4 - Init Visualization: 0.00s
  Step 5 - Process Frames:    588.69s (avg: 2.537s/frame)
  Step 6 - Convert Arrays:    0.16s
  Step 7 - Forward Kinematics: 18.38s
  Step 8 - Save Data:         0.53s
Status: SUCCESS
==================================================

=== SUCCESS LOG - 2025-10-14 15:08:11 ===
Input file: /data/retarget/locomotion/raw/AMASS_SMPLXG/GRAB/s1/pyramidsmall_pass_1_stageii.npz
Output file: ../robot/ik_based/pkl/009117.pkl
Robot type: unitree_g1
Processing time: 795.01 seconds

STEP-BY-STEP TIMING:
  Step 1 - Load SMPLX:        101.97s
  Step 2 - Align FPS:         77.26s
  Step 3 - Init Retarget:     4.22s
  Step 4 - Init Visualization: 0.01s
  Step 5 - Process Frames:    578.25s (avg: 2.380s/frame)
  Step 6 - Convert Arrays:    0.00s
  Step 7 - Forward Kinematics: 18.22s
  Step 8 - Save Data:         0.32s
Status: SUCCESS
==================================================

=== SUCCESS LOG - 2025-10-14 15:08:24 ===
Input file: /data/retarget/locomotion/raw/AMASS_SMPLXG/GRAB/s1/piggybank_pass_1_stageii.npz
Output file: ../robot/ik_based/pkl/009105.pkl
Robot type: unitree_g1
Processing time: 957.23 seconds

STEP-BY-STEP TIMING:
  Step 1 - Load SMPLX:        104.41s
  Step 2 - Align FPS:         84.25s
  Step 3 - Init Retarget:     3.58s
  Step 4 - Init Visualization: 0.12s
  Step 5 - Process Frames:    730.18s (avg: 2.509s/frame)
  Step 6 - Convert Arrays:    0.01s
  Step 7 - Forward Kinematics: 18.58s
  Step 8 - Save Data:         0.32s
Status: SUCCESS
==================================================

=== SUCCESS LOG - 2025-10-14 15:09:08 ===
Input file: /data/retarget/locomotion/raw/AMASS_SMPLXG/GRAB/s1/pyramidsmall_inspect_1_stageii.npz
Output file: ../robot/ik_based/pkl/009116.pkl
Robot type: unitree_g1
Processing time: 864.83 seconds

STEP-BY-STEP TIMING:
  Step 1 - Load SMPLX:        98.30s
  Step 2 - Align FPS:         92.08s
  Step 3 - Init Retarget:     4.44s
  Step 4 - Init Visualization: 0.05s
  Step 5 - Process Frames:    636.84s (avg: 2.507s/frame)
  Step 6 - Convert Arrays:    0.00s
  Step 7 - Forward Kinematics: 18.40s
  Step 8 - Save Data:         0.40s
Status: SUCCESS
==================================================

=== SUCCESS LOG - 2025-10-14 15:09:27 ===
Input file: /data/retarget/locomotion/raw/AMASS_SMPLXG/GRAB/s1/phone_offhand_1_stageii.npz
Output file: ../robot/ik_based/pkl/009101.pkl
Robot type: unitree_g1
Processing time: 1105.92 seconds

STEP-BY-STEP TIMING:
  Step 1 - Load SMPLX:        107.11s
  Step 2 - Align FPS:         97.45s
  Step 3 - Init Retarget:     5.11s
  Step 4 - Init Visualization: 0.00s
  Step 5 - Process Frames:    864.65s (avg: 2.644s/frame)
  Step 6 - Convert Arrays:    0.07s
  Step 7 - Forward Kinematics: 18.78s
  Step 8 - Save Data:         0.33s
Status: SUCCESS
==================================================

=== SUCCESS LOG - 2025-10-14 15:09:37 ===
Input file: /data/retarget/locomotion/raw/AMASS_SMPLXG/GRAB/s1/scissors_pass_1_stageii.npz
Output file: ../robot/ik_based/pkl/009119.pkl
Robot type: unitree_g1
Processing time: 840.32 seconds

STEP-BY-STEP TIMING:
  Step 1 - Load SMPLX:        109.95s
  Step 2 - Align FPS:         81.77s
  Step 3 - Init Retarget:     1.99s
  Step 4 - Init Visualization: 0.04s
  Step 5 - Process Frames:    616.64s (avg: 2.390s/frame)
  Step 6 - Convert Arrays:    0.12s
  Step 7 - Forward Kinematics: 16.67s
  Step 8 - Save Data:         0.19s
Status: SUCCESS
==================================================

=== SUCCESS LOG - 2025-10-14 15:09:49 ===
Input file: /data/retarget/locomotion/raw/AMASS_SMPLXG/GRAB/s1/piggybank_offhand_1_stageii.npz
Output file: ../robot/ik_based/pkl/009104.pkl
Robot type: unitree_g1
Processing time: 1046.43 seconds

STEP-BY-STEP TIMING:
  Step 1 - Load SMPLX:        105.98s
  Step 2 - Align FPS:         92.16s
  Step 3 - Init Retarget:     1.64s
  Step 4 - Init Visualization: 0.07s
  Step 5 - Process Frames:    813.03s (avg: 2.557s/frame)
  Step 6 - Convert Arrays:    0.27s
  Step 7 - Forward Kinematics: 16.44s
  Step 8 - Save Data:         0.35s
Status: SUCCESS
==================================================

=== SUCCESS LOG - 2025-10-14 15:09:54 ===
Input file: /data/retarget/locomotion/raw/AMASS_SMPLXG/GRAB/s1/pyramidmedium_pass_1_stageii.npz
Output file: ../robot/ik_based/pkl/009114.pkl
Robot type: unitree_g1
Processing time: 927.15 seconds

STEP-BY-STEP TIMING:
  Step 1 - Load SMPLX:        99.32s
  Step 2 - Align FPS:         86.56s
  Step 3 - Init Retarget:     2.63s
  Step 4 - Init Visualization: 0.00s
  Step 5 - Process Frames:    707.84s (avg: 2.612s/frame)
  Step 6 - Convert Arrays:    0.01s
  Step 7 - Forward Kinematics: 16.53s
  Step 8 - Save Data:         0.25s
Status: SUCCESS
==================================================

=== SUCCESS LOG - 2025-10-14 15:09:58 ===
Input file: /data/retarget/locomotion/raw/AMASS_SMPLXG/GRAB/s1/cup_pick_all_stageii.npz
Output file: ../robot/ik_based/pkl/009030.pkl
Robot type: unitree_g1
Processing time: 3076.20 seconds

STEP-BY-STEP TIMING:
  Step 1 - Load SMPLX:        91.98s
  Step 2 - Align FPS:         381.12s
  Step 3 - Init Retarget:     2.40s
  Step 4 - Init Visualization: 0.00s
  Step 5 - Process Frames:    2569.71s (avg: 2.754s/frame)
  Step 6 - Convert Arrays:    0.00s
  Step 7 - Forward Kinematics: 15.84s
  Step 8 - Save Data:         0.26s
Status: SUCCESS
==================================================

=== SUCCESS LOG - 2025-10-14 15:10:24 ===
Input file: /data/retarget/locomotion/raw/AMASS_SMPLXG/GRAB/s1/piggybank_use_1_stageii.npz
Output file: ../robot/ik_based/pkl/009107.pkl
Robot type: unitree_g1
Processing time: 1046.56 seconds

STEP-BY-STEP TIMING:
  Step 1 - Load SMPLX:        105.25s
  Step 2 - Align FPS:         96.32s
  Step 3 - Init Retarget:     2.48s
  Step 4 - Init Visualization: 0.00s
  Step 5 - Process Frames:    815.82s (avg: 2.457s/frame)
  Step 6 - Convert Arrays:    0.00s
  Step 7 - Forward Kinematics: 14.93s
  Step 8 - Save Data:         0.24s
Status: SUCCESS
==================================================

=== SUCCESS LOG - 2025-10-14 15:10:55 ===
Input file: /data/retarget/locomotion/raw/AMASS_SMPLXG/GRAB/s1/pyramidmedium_inspect_1_stageii.npz
Output file: ../robot/ik_based/pkl/009112.pkl
Robot type: unitree_g1
Processing time: 993.96 seconds

STEP-BY-STEP TIMING:
  Step 1 - Load SMPLX:        96.65s
  Step 2 - Align FPS:         101.17s
  Step 3 - Init Retarget:     2.20s
  Step 4 - Init Visualization: 0.02s
  Step 5 - Process Frames:    761.12s (avg: 2.495s/frame)
  Step 6 - Convert Arrays:    0.05s
  Step 7 - Forward Kinematics: 19.01s
  Step 8 - Save Data:         0.11s
Status: SUCCESS
==================================================

=== SUCCESS LOG - 2025-10-14 15:11:06 ===
Input file: /data/retarget/locomotion/raw/AMASS_SMPLXG/GRAB/s1/spheremedium_pass_1_stageii.npz
Output file: ../robot/ik_based/pkl/009127.pkl
Robot type: unitree_g1
Processing time: 781.37 seconds

STEP-BY-STEP TIMING:
  Step 1 - Load SMPLX:        113.16s
  Step 2 - Align FPS:         74.32s
  Step 3 - Init Retarget:     2.54s
  Step 4 - Init Visualization: 0.00s
  Step 5 - Process Frames:    563.65s (avg: 2.461s/frame)
  Step 6 - Convert Arrays:    0.04s
  Step 7 - Forward Kinematics: 16.13s
  Step 8 - Save Data:         0.30s
Status: SUCCESS
==================================================

=== SUCCESS LOG - 2025-10-14 15:11:11 ===
Input file: /data/retarget/locomotion/raw/AMASS_SMPLXG/GRAB/s1/pyramidlarge_offhand_1_stageii.npz
Output file: ../robot/ik_based/pkl/009109.pkl
Robot type: unitree_g1
Processing time: 1038.08 seconds

STEP-BY-STEP TIMING:
  Step 1 - Load SMPLX:        102.10s
  Step 2 - Align FPS:         101.58s
  Step 3 - Init Retarget:     2.47s
  Step 4 - Init Visualization: 0.01s
  Step 5 - Process Frames:    802.85s (avg: 2.509s/frame)
  Step 6 - Convert Arrays:    0.02s
  Step 7 - Forward Kinematics: 16.83s
  Step 8 - Save Data:         0.24s
Status: SUCCESS
==================================================

=== SUCCESS LOG - 2025-10-14 15:11:19 ===
Input file: /data/retarget/locomotion/raw/AMASS_SMPLXG/GRAB/s1/scissors_offhand_1_stageii.npz
Output file: ../robot/ik_based/pkl/009118.pkl
Robot type: unitree_g1
Processing time: 965.56 seconds

STEP-BY-STEP TIMING:
  Step 1 - Load SMPLX:        102.66s
  Step 2 - Align FPS:         96.44s
  Step 3 - Init Retarget:     2.45s
  Step 4 - Init Visualization: 0.00s
  Step 5 - Process Frames:    737.41s (avg: 2.410s/frame)
  Step 6 - Convert Arrays:    0.04s
  Step 7 - Forward Kinematics: 14.70s
  Step 8 - Save Data:         0.18s
Status: SUCCESS
==================================================

=== SUCCESS LOG - 2025-10-14 15:11:30 ===
Input file: /data/retarget/locomotion/raw/AMASS_SMPLXG/GRAB/s1/spherelarge_pass_1_stageii.npz
Output file: ../robot/ik_based/pkl/009123.pkl
Robot type: unitree_g1
Processing time: 877.58 seconds

STEP-BY-STEP TIMING:
  Step 1 - Load SMPLX:        114.48s
  Step 2 - Align FPS:         77.92s
  Step 3 - Init Retarget:     2.72s
  Step 4 - Init Visualization: 0.00s
  Step 5 - Process Frames:    653.42s (avg: 2.678s/frame)
  Step 6 - Convert Arrays:    0.00s
  Step 7 - Forward Kinematics: 15.32s
  Step 8 - Save Data:         0.21s
Status: SUCCESS
==================================================

=== SUCCESS LOG - 2025-10-14 15:12:21 ===
Input file: /data/retarget/locomotion/raw/AMASS_SMPLXG/GRAB/s1/spheremedium_inspect_1_stageii.npz
Output file: ../robot/ik_based/pkl/009125.pkl
Robot type: unitree_g1
Processing time: 895.06 seconds

STEP-BY-STEP TIMING:
  Step 1 - Load SMPLX:        109.47s
  Step 2 - Align FPS:         92.71s
  Step 3 - Init Retarget:     2.29s
  Step 4 - Init Visualization: 0.00s
  Step 5 - Process Frames:    658.51s (avg: 2.448s/frame)
  Step 6 - Convert Arrays:    0.00s
  Step 7 - Forward Kinematics: 17.55s
  Step 8 - Save Data:         0.22s
Status: SUCCESS
==================================================

=== SUCCESS LOG - 2025-10-14 15:12:26 ===
Input file: /data/retarget/locomotion/raw/AMASS_SMPLXG/GRAB/s1/mouse_use_1_stageii.npz
Output file: ../robot/ik_based/pkl/009091.pkl
Robot type: unitree_g1
Processing time: 1655.39 seconds

STEP-BY-STEP TIMING:
  Step 1 - Load SMPLX:        110.33s
  Step 2 - Align FPS:         194.52s
  Step 3 - Init Retarget:     11.34s
  Step 4 - Init Visualization: 0.12s
  Step 5 - Process Frames:    1304.44s (avg: 2.429s/frame)
  Step 6 - Convert Arrays:    0.02s
  Step 7 - Forward Kinematics: 17.01s
  Step 8 - Save Data:         0.22s
Status: SUCCESS
==================================================

=== SUCCESS LOG - 2025-10-14 15:13:19 ===
Input file: /data/retarget/locomotion/raw/AMASS_SMPLXG/GRAB/s1/spherelarge_inspect_1_stageii.npz
Output file: ../robot/ik_based/pkl/009121.pkl
Robot type: unitree_g1
Processing time: 1044.58 seconds

STEP-BY-STEP TIMING:
  Step 1 - Load SMPLX:        107.39s
  Step 2 - Align FPS:         101.47s
  Step 3 - Init Retarget:     1.51s
  Step 4 - Init Visualization: 0.00s
  Step 5 - Process Frames:    802.65s (avg: 2.485s/frame)
  Step 6 - Convert Arrays:    0.04s
  Step 7 - Forward Kinematics: 15.94s
  Step 8 - Save Data:         0.27s
Status: SUCCESS
==================================================

=== SUCCESS LOG - 2025-10-14 15:13:28 ===
Input file: /data/retarget/locomotion/raw/AMASS_SMPLXG/GRAB/s1/spheremedium_offhand_1_stageii.npz
Output file: ../robot/ik_based/pkl/009126.pkl
Robot type: unitree_g1
Processing time: 953.37 seconds

STEP-BY-STEP TIMING:
  Step 1 - Load SMPLX:        110.12s
  Step 2 - Align FPS:         92.50s
  Step 3 - Init Retarget:     2.98s
  Step 4 - Init Visualization: 0.15s
  Step 5 - Process Frames:    711.38s (avg: 2.453s/frame)
  Step 6 - Convert Arrays:    0.01s
  Step 7 - Forward Kinematics: 18.48s
  Step 8 - Save Data:         0.65s
Status: SUCCESS
==================================================

=== SUCCESS LOG - 2025-10-14 15:13:56 ===
Input file: /data/retarget/locomotion/raw/AMASS_SMPLXG/GRAB/s1/spheresmall_inspect_1_stageii.npz
Output file: ../robot/ik_based/pkl/009129.pkl
Robot type: unitree_g1
Processing time: 916.77 seconds

STEP-BY-STEP TIMING:
  Step 1 - Load SMPLX:        113.74s
  Step 2 - Align FPS:         78.38s
  Step 3 - Init Retarget:     2.02s
  Step 4 - Init Visualization: 0.00s
  Step 5 - Process Frames:    688.00s (avg: 2.539s/frame)
  Step 6 - Convert Arrays:    0.01s
  Step 7 - Forward Kinematics: 20.12s
  Step 8 - Save Data:         0.25s
Status: SUCCESS
==================================================

=== SUCCESS LOG - 2025-10-14 15:15:10 ===
Input file: /data/retarget/locomotion/raw/AMASS_SMPLXG/GRAB/s1/spherelarge_offhand_1_stageii.npz
Output file: ../robot/ik_based/pkl/009122.pkl
Robot type: unitree_g1
Processing time: 1143.17 seconds

STEP-BY-STEP TIMING:
  Step 1 - Load SMPLX:        118.91s
  Step 2 - Align FPS:         103.72s
  Step 3 - Init Retarget:     8.34s
  Step 4 - Init Visualization: 0.19s
  Step 5 - Process Frames:    870.87s (avg: 2.680s/frame)
  Step 6 - Convert Arrays:    0.01s
  Step 7 - Forward Kinematics: 24.76s
  Step 8 - Save Data:         0.32s
Status: SUCCESS
==================================================

=== SUCCESS LOG - 2025-10-14 15:15:13 ===
Input file: /data/retarget/locomotion/raw/AMASS_SMPLXG/GRAB/s1/scissors_use_2_stageii.npz
Output file: ../robot/ik_based/pkl/009120.pkl
Robot type: unitree_g1
Processing time: 1171.09 seconds

STEP-BY-STEP TIMING:
  Step 1 - Load SMPLX:        112.19s
  Step 2 - Align FPS:         100.01s
  Step 3 - Init Retarget:     2.30s
  Step 4 - Init Visualization: 0.05s
  Step 5 - Process Frames:    922.35s (avg: 2.635s/frame)
  Step 6 - Convert Arrays:    0.12s
  Step 7 - Forward Kinematics: 18.59s
  Step 8 - Save Data:         0.20s
Status: SUCCESS
==================================================

=== SUCCESS LOG - 2025-10-14 15:15:29 ===
Input file: /data/retarget/locomotion/raw/AMASS_SMPLXG/GRAB/s1/gamecontroller_pick_all_stageii.npz
Output file: ../robot/ik_based/pkl/009073.pkl
Robot type: unitree_g1
Processing time: 2277.90 seconds

STEP-BY-STEP TIMING:
  Step 1 - Load SMPLX:        108.61s
  Step 2 - Align FPS:         236.84s
  Step 3 - Init Retarget:     2.11s
  Step 4 - Init Visualization: 0.01s
  Step 5 - Process Frames:    1898.92s (avg: 2.539s/frame)
  Step 6 - Convert Arrays:    0.12s
  Step 7 - Forward Kinematics: 17.38s
  Step 8 - Save Data:         0.26s
Status: SUCCESS
==================================================

=== SUCCESS LOG - 2025-10-14 15:16:37 ===
Input file: /data/retarget/locomotion/raw/AMASS_SMPLXG/GRAB/s1/spheresmall_pass_1_stageii.npz
Output file: ../robot/ik_based/pkl/009131.pkl
Robot type: unitree_g1
Processing time: 937.39 seconds

STEP-BY-STEP TIMING:
  Step 1 - Load SMPLX:        106.42s
  Step 2 - Align FPS:         76.83s
  Step 3 - Init Retarget:     2.22s
  Step 4 - Init Visualization: 0.02s
  Step 5 - Process Frames:    717.89s (avg: 2.730s/frame)
  Step 6 - Convert Arrays:    0.00s
  Step 7 - Forward Kinematics: 17.41s
  Step 8 - Save Data:         0.28s
Status: SUCCESS
==================================================

=== SUCCESS LOG - 2025-10-14 15:16:47 ===
Input file: /data/retarget/locomotion/raw/AMASS_SMPLXG/GRAB/s1/spheresmall_offhand_1_stageii.npz
Output file: ../robot/ik_based/pkl/009130.pkl
Robot type: unitree_g1
Processing time: 964.20 seconds

STEP-BY-STEP TIMING:
  Step 1 - Load SMPLX:        111.70s
  Step 2 - Align FPS:         82.63s
  Step 3 - Init Retarget:     2.70s
  Step 4 - Init Visualization: 0.00s
  Step 5 - Process Frames:    731.07s (avg: 2.478s/frame)
  Step 6 - Convert Arrays:    0.07s
  Step 7 - Forward Kinematics: 18.97s
  Step 8 - Save Data:         0.63s
Status: SUCCESS
==================================================

=== SUCCESS LOG - 2025-10-14 15:17:07 ===
Input file: /data/retarget/locomotion/raw/AMASS_SMPLXG/GRAB/s1/stanfordbunny_pass_1_stageii.npz
Output file: ../robot/ik_based/pkl/009139.pkl
Robot type: unitree_g1
Processing time: 829.78 seconds

STEP-BY-STEP TIMING:
  Step 1 - Load SMPLX:        108.83s
  Step 2 - Align FPS:         78.84s
  Step 3 - Init Retarget:     2.44s
  Step 4 - Init Visualization: 0.13s
  Step 5 - Process Frames:    607.71s (avg: 2.543s/frame)
  Step 6 - Convert Arrays:    0.10s
  Step 7 - Forward Kinematics: 17.71s
  Step 8 - Save Data:         0.34s
Status: SUCCESS
==================================================

=== SUCCESS LOG - 2025-10-14 15:17:13 ===
Input file: /data/retarget/locomotion/raw/AMASS_SMPLXG/GRAB/s1/phone_call_1_stageii.npz
Output file: ../robot/ik_based/pkl/009100.pkl
Robot type: unitree_g1
Processing time: 1595.60 seconds

STEP-BY-STEP TIMING:
  Step 1 - Load SMPLX:        110.26s
  Step 2 - Align FPS:         175.57s
  Step 3 - Init Retarget:     2.38s
  Step 4 - Init Visualization: 0.00s
  Step 5 - Process Frames:    1275.05s (avg: 2.490s/frame)
  Step 6 - Convert Arrays:    0.00s
  Step 7 - Forward Kinematics: 19.00s
  Step 8 - Save Data:         0.35s
Status: SUCCESS
==================================================

=== SUCCESS LOG - 2025-10-14 15:17:29 ===
Input file: /data/retarget/locomotion/raw/AMASS_SMPLXG/GRAB/s1/stanfordbunny_offhand_1_stageii.npz
Output file: ../robot/ik_based/pkl/009138.pkl
Robot type: unitree_g1
Processing time: 875.57 seconds

STEP-BY-STEP TIMING:
  Step 1 - Load SMPLX:        99.15s
  Step 2 - Align FPS:         89.94s
  Step 3 - Init Retarget:     2.30s
  Step 4 - Init Visualization: 0.03s
  Step 5 - Process Frames:    650.84s (avg: 2.542s/frame)
  Step 6 - Convert Arrays:    0.01s
  Step 7 - Forward Kinematics: 17.17s
[...]

STEP-BY-STEP TIMING:
  Step 1 - Load SMPLX:        89.71s
  Step 2 - Align FPS:         37.10s
  Step 3 - Init Retarget:     2.11s
  Step 4 - Init Visualization: 0.02s
  Step 5 - Process Frames:    336.39s (avg: 2.258s/frame)
  Step 6 - Convert Arrays:    0.06s
  Step 7 - Forward Kinematics: 15.05s
  Step 8 - Save Data:         0.48s
Status: SUCCESS
==================================================

=== SUCCESS LOG - 2025-10-14 21:33:45 ===
Input file: /data/retarget/locomotion/raw/AMASS_SMPLXG/GRAB/s9/cubemedium_pass_1_stageii.npz
Output file: ../robot/ik_based/pkl/010233.pkl
Robot type: unitree_g1
Processing time: 481.84 seconds

STEP-BY-STEP TIMING:
  Step 1 - Load SMPLX:        92.55s
  Step 2 - Align FPS:         28.88s
  Step 3 - Init Retarget:     13.80s
  Step 4 - Init Visualization: 0.08s
  Step 5 - Process Frames:    321.24s (avg: 2.397s/frame)
  Step 6 - Convert Arrays:    0.02s
  Step 7 - Forward Kinematics: 12.18s
  Step 8 - Save Data:         0.26s
Status: SUCCESS
==================================================

=== SUCCESS LOG - 2025-10-14 21:33:47 ===
Input file: /data/retarget/locomotion/raw/AMASS_SMPLXG/GRAB/s9/binoculars_pass_1_stageii.npz
Output file: ../robot/ik_based/pkl/010220.pkl
Robot type: unitree_g1
Processing time: 665.85 seconds

STEP-BY-STEP TIMING:
  Step 1 - Load SMPLX:        91.78s
  Step 2 - Align FPS:         49.56s
  Step 3 - Init Retarget:     3.19s
  Step 4 - Init Visualization: 0.00s
  Step 5 - Process Frames:    492.13s (avg: 2.321s/frame)
  Step 6 - Convert Arrays:    0.21s
  Step 7 - Forward Kinematics: 15.70s
  Step 8 - Save Data:         0.34s
Status: SUCCESS
==================================================

=== SUCCESS LOG - 2025-10-14 21:33:57 ===
Input file: /data/retarget/locomotion/raw/AMASS_SMPLXG/GRAB/s9/cup_pass_1_stageii.npz
Output file: ../robot/ik_based/pkl/010238.pkl
Robot type: unitree_g1
Processing time: 419.97 seconds

STEP-BY-STEP TIMING:
  Step 1 - Load SMPLX:        103.01s
  Step 2 - Align FPS:         17.17s
  Step 3 - Init Retarget:     2.58s
  Step 4 - Init Visualization: 0.10s
  Step 5 - Process Frames:    269.06s (avg: 2.205s/frame)
  Step 6 - Convert Arrays:    0.00s
  Step 7 - Forward Kinematics: 14.42s
  Step 8 - Save Data:         0.33s
Status: SUCCESS
==================================================

=== SUCCESS LOG - 2025-10-14 21:34:05 ===
Input file: /data/retarget/locomotion/raw/AMASS_SMPLXG/GRAB/s9/bowl_pass_1_stageii.npz
Output file: ../robot/ik_based/pkl/010223.pkl
Robot type: unitree_g1
Processing time: 633.52 seconds

STEP-BY-STEP TIMING:
  Step 1 - Load SMPLX:        94.49s
  Step 2 - Align FPS:         37.33s
  Step 3 - Init Retarget:     2.24s
  Step 4 - Init Visualization: 0.01s
  Step 5 - Process Frames:    471.62s (avg: 2.323s/frame)
  Step 6 - Convert Arrays:    0.00s
  Step 7 - Forward Kinematics: 15.54s
  Step 8 - Save Data:         0.17s
Status: SUCCESS
==================================================

=== SUCCESS LOG - 2025-10-14 21:34:09 ===
Input file: /data/retarget/locomotion/raw/AMASS_SMPLXG/GRAB/s9/cubesmall_inspect_1_stageii.npz
Output file: ../robot/ik_based/pkl/010235.pkl
Robot type: unitree_g1
Processing time: 483.99 seconds

STEP-BY-STEP TIMING:
  Step 1 - Load SMPLX:        100.14s
  Step 2 - Align FPS:         33.01s
  Step 3 - Init Retarget:     6.66s
  Step 4 - Init Visualization: 0.03s
  Step 5 - Process Frames:    313.62s (avg: 2.240s/frame)
  Step 6 - Convert Arrays:    0.00s
  Step 7 - Forward Kinematics: 15.58s
  Step 8 - Save Data:         0.40s
Status: SUCCESS
==================================================

=== SUCCESS LOG - 2025-10-14 21:34:45 ===
Input file: /data/retarget/locomotion/raw/AMASS_SMPLXG/GRAB/s9/bowl_drink_2_stageii.npz
Output file: ../robot/ik_based/pkl/010222.pkl
Robot type: unitree_g1
Processing time: 703.58 seconds

STEP-BY-STEP TIMING:
  Step 1 - Load SMPLX:        91.16s
  Step 2 - Align FPS:         51.94s
  Step 3 - Init Retarget:     7.21s
  Step 4 - Init Visualization: 0.00s
  Step 5 - Process Frames:    529.57s (avg: 2.179s/frame)
  Step 6 - Convert Arrays:    0.00s
  Step 7 - Forward Kinematics: 13.38s
  Step 8 - Save Data:         0.18s
Status: SUCCESS
==================================================

=== SUCCESS LOG - 2025-10-14 21:34:48 ===
Input file: /data/retarget/locomotion/raw/AMASS_SMPLXG/GRAB/s9/cubesmall_pass_1_stageii.npz
Output file: ../robot/ik_based/pkl/010236.pkl
Robot type: unitree_g1
Processing time: 503.54 seconds

STEP-BY-STEP TIMING:
  Step 1 - Load SMPLX:        97.94s
  Step 2 - Align FPS:         31.76s
  Step 3 - Init Retarget:     3.00s
  Step 4 - Init Visualization: 0.03s
  Step 5 - Process Frames:    347.31s (avg: 2.241s/frame)
  Step 6 - Convert Arrays:    0.00s
  Step 7 - Forward Kinematics: 11.90s
  Step 8 - Save Data:         0.26s
Status: SUCCESS
==================================================

=== SUCCESS LOG - 2025-10-14 21:34:58 ===
Input file: /data/retarget/locomotion/raw/AMASS_SMPLXG/GRAB/s8/toothpaste_pick_all_stageii.npz
Output file: ../robot/ik_based/pkl/010181.pkl
Robot type: unitree_g1
Processing time: 1433.94 seconds

STEP-BY-STEP TIMING:
  Step 1 - Load SMPLX:        98.67s
  Step 2 - Align FPS:         140.94s
  Step 3 - Init Retarget:     7.96s
  Step 4 - Init Visualization: 0.08s
  Step 5 - Process Frames:    1160.06s (avg: 2.004s/frame)
  Step 6 - Convert Arrays:    0.00s
  Step 7 - Forward Kinematics: 12.21s
  Step 8 - Save Data:         0.33s
Status: SUCCESS
==================================================

=== SUCCESS LOG - 2025-10-14 21:35:14 ===
Input file: /data/retarget/locomotion/raw/AMASS_SMPLXG/GRAB/s9/bowl_drink_1_stageii.npz
Output file: ../robot/ik_based/pkl/010221.pkl
Robot type: unitree_g1
Processing time: 732.63 seconds

STEP-BY-STEP TIMING:
  Step 1 - Load SMPLX:        90.44s
  Step 2 - Align FPS:         52.63s
  Step 3 - Init Retarget:     7.12s
  Step 4 - Init Visualization: 0.00s
  Step 5 - Process Frames:    552.23s (avg: 2.166s/frame)
  Step 6 - Convert Arrays:    0.01s
  Step 7 - Forward Kinematics: 15.77s
  Step 8 - Save Data:         0.44s
Status: SUCCESS
==================================================

=== SUCCESS LOG - 2025-10-14 21:35:27 ===
Input file: /data/retarget/locomotion/raw/AMASS_SMPLXG/GRAB/s9/banana_peel_1_stageii.npz
Output file: ../robot/ik_based/pkl/010217.pkl
Robot type: unitree_g1
Processing time: 852.06 seconds

STEP-BY-STEP TIMING:
  Step 1 - Load SMPLX:        104.65s
  Step 2 - Align FPS:         50.92s
  Step 3 - Init Retarget:     2.90s
  Step 4 - Init Visualization: 0.02s
  Step 5 - Process Frames:    663.49s (avg: 2.288s/frame)
  Step 6 - Convert Arrays:    0.00s
  Step 7 - Forward Kinematics: 15.75s
  Step 8 - Save Data:         0.40s
Status: SUCCESS
==================================================

=== SUCCESS LOG - 2025-10-14 21:35:44 ===
Input file: /data/retarget/locomotion/raw/AMASS_SMPLXG/GRAB/s9/banana_eat_1_stageii.npz
Output file: ../robot/ik_based/pkl/010215.pkl
Robot type: unitree_g1
Processing time: 904.03 seconds

STEP-BY-STEP TIMING:
  Step 1 - Load SMPLX:        100.44s
  Step 2 - Align FPS:         60.10s
  Step 3 - Init Retarget:     2.17s
  Step 4 - Init Visualization: 0.00s
  Step 5 - Process Frames:    713.22s (avg: 2.257s/frame)
  Step 6 - Convert Arrays:    0.02s
  Step 7 - Forward Kinematics: 15.96s
  Step 8 - Save Data:         0.21s
Status: SUCCESS
==================================================

=== SUCCESS LOG - 2025-10-14 21:36:15 ===
Input file: /data/retarget/locomotion/raw/AMASS_SMPLXG/GRAB/s9/cup_drink_1_stageii.npz
Output file: ../robot/ik_based/pkl/010237.pkl
Robot type: unitree_g1
Processing time: 567.19 seconds

STEP-BY-STEP TIMING:
  Step 1 - Load SMPLX:        103.93s
  Step 2 - Align FPS:         40.55s
  Step 3 - Init Retarget:     1.58s
  Step 4 - Init Visualization: 0.00s
  Step 5 - Process Frames:    388.17s (avg: 2.098s/frame)
  Step 6 - Convert Arrays:    0.00s
  Step 7 - Forward Kinematics: 19.15s
  Step 8 - Save Data:         0.32s
Status: SUCCESS
==================================================

=== SUCCESS LOG - 2025-10-14 21:36:19 ===
Input file: /data/retarget/locomotion/raw/AMASS_SMPLXG/GRAB/s9/cylindermedium_pass_1_stageii.npz
Output file: ../robot/ik_based/pkl/010244.pkl
Robot type: unitree_g1
Processing time: 431.51 seconds

STEP-BY-STEP TIMING:
  Step 1 - Load SMPLX:        83.67s
  Step 2 - Align FPS:         28.34s
  Step 3 - Init Retarget:     1.97s
  Step 4 - Init Visualization: 0.01s
  Step 5 - Process Frames:    289.61s (avg: 2.317s/frame)
  Step 6 - Convert Arrays:    0.01s
  Step 7 - Forward Kinematics: 16.86s
  Step 8 - Save Data:         0.15s
Status: SUCCESS
==================================================

=== SUCCESS LOG - 2025-10-14 21:36:34 ===
Input file: /data/retarget/locomotion/raw/AMASS_SMPLXG/GRAB/s9/cylinderlarge_inspect_1_stageii.npz
Output file: ../robot/ik_based/pkl/010240.pkl
Robot type: unitree_g1
Processing time: 512.15 seconds

STEP-BY-STEP TIMING:
  Step 1 - Load SMPLX:        97.85s
  Step 2 - Align FPS:         28.49s
  Step 3 - Init Retarget:     1.70s
  Step 4 - Init Visualization: 0.01s
  Step 5 - Process Frames:    352.15s (avg: 2.332s/frame)
  Step 6 - Convert Arrays:    0.01s
  Step 7 - Forward Kinematics: 14.38s
  Step 8 - Save Data:         0.42s
Status: SUCCESS
==================================================

=== SUCCESS LOG - 2025-10-14 21:36:43 ===
Input file: /data/retarget/locomotion/raw/AMASS_SMPLXG/GRAB/s9/banana_peel_2_stageii.npz
Output file: ../robot/ik_based/pkl/010218.pkl
Robot type: unitree_g1
Processing time: 864.70 seconds

STEP-BY-STEP TIMING:
  Step 1 - Load SMPLX:        92.24s
  Step 2 - Align FPS:         53.55s
  Step 3 - Init Retarget:     2.68s
  Step 4 - Init Visualization: 0.00s
  Step 5 - Process Frames:    685.36s (avg: 2.492s/frame)
  Step 6 - Convert Arrays:    0.11s
  Step 7 - Forward Kinematics: 16.91s
  Step 8 - Save Data:         0.58s
Status: SUCCESS
==================================================

=== SUCCESS LOG - 2025-10-14 21:37:00 ===
Input file: /data/retarget/locomotion/raw/AMASS_SMPLXG/GRAB/s8/torusmedium_pick_all_stageii.npz
Output file: ../robot/ik_based/pkl/010189.pkl
Robot type: unitree_g1
Processing time: 1386.87 seconds

STEP-BY-STEP TIMING:
  Step 1 - Load SMPLX:        101.25s
  Step 2 - Align FPS:         120.85s
  Step 3 - Init Retarget:     3.15s
  Step 4 - Init Visualization: 0.02s
  Step 5 - Process Frames:    1130.08s (avg: 1.993s/frame)
  Step 6 - Convert Arrays:    0.15s
  Step 7 - Forward Kinematics: 15.64s
  Step 8 - Save Data:         0.24s
Status: SUCCESS
==================================================

=== SUCCESS LOG - 2025-10-14 21:37:13 ===
Input file: /data/retarget/locomotion/raw/AMASS_SMPLXG/GRAB/s9/cubelarge_inspect_1_stageii.npz
Output file: ../robot/ik_based/pkl/010229.pkl
Robot type: unitree_g1
Processing time: 730.02 seconds

STEP-BY-STEP TIMING:
  Step 1 - Load SMPLX:        87.77s
  Step 2 - Align FPS:         74.84s
  Step 3 - Init Retarget:     14.02s
  Step 4 - Init Visualization: 0.01s
  Step 5 - Process Frames:    521.33s (avg: 2.172s/frame)
  Step 6 - Convert Arrays:    0.09s
  Step 7 - Forward Kinematics: 18.24s
  Step 8 - Save Data:         0.18s
Status: SUCCESS
==================================================

=== SUCCESS LOG - 2025-10-14 21:37:17 ===
Input file: /data/retarget/locomotion/raw/AMASS_SMPLXG/GRAB/s9/cylinderlarge_pass_1_stageii.npz
Output file: ../robot/ik_based/pkl/010241.pkl
Robot type: unitree_g1
Processing time: 520.22 seconds

STEP-BY-STEP TIMING:
  Step 1 - Load SMPLX:        90.94s
  Step 2 - Align FPS:         34.76s
  Step 3 - Init Retarget:     2.14s
  Step 4 - Init Visualization: 0.02s
  Step 5 - Process Frames:    359.29s (avg: 2.395s/frame)
  Step 6 - Convert Arrays:    0.02s
  Step 7 - Forward Kinematics: 17.94s
  Step 8 - Save Data:         0.31s
Status: SUCCESS
==================================================

=== SUCCESS LOG - 2025-10-14 21:37:30 ===
Input file: /data/retarget/locomotion/raw/AMASS_SMPLXG/GRAB/s8/waterbottle_pick_all_stageii.npz
Output file: ../robot/ik_based/pkl/010200.pkl
Robot type: unitree_g1
Processing time: 1239.98 seconds

STEP-BY-STEP TIMING:
  Step 1 - Load SMPLX:        91.28s
  Step 2 - Align FPS:         129.76s
  Step 3 - Init Retarget:     4.07s
  Step 4 - Init Visualization: 0.06s
  Step 5 - Process Frames:    983.63s (avg: 1.959s/frame)
  Step 6 - Convert Arrays:    0.01s
  Step 7 - Forward Kinematics: 17.28s
  Step 8 - Save Data:         0.14s
Status: SUCCESS
==================================================

=== SUCCESS LOG - 2025-10-14 21:37:55 ===
Input file: /data/retarget/locomotion/raw/AMASS_SMPLXG/GRAB/s9/cylindermedium_inspect_1_stageii.npz
Output file: ../robot/ik_based/pkl/010243.pkl
Robot type: unitree_g1
Processing time: 539.16 seconds

STEP-BY-STEP TIMING:
  Step 1 - Load SMPLX:        84.06s
  Step 2 - Align FPS:         36.12s
  Step 3 - Init Retarget:     2.37s
  Step 4 - Init Visualization: 0.00s
  Step 5 - Process Frames:    391.60s (avg: 2.373s/frame)
  Step 6 - Convert Arrays:    0.02s
  Step 7 - Forward Kinematics: 13.22s
  Step 8 - Save Data:         0.39s
Status: SUCCESS
==================================================

=== SUCCESS LOG - 2025-10-14 21:37:58 ===
Input file: /data/retarget/locomotion/raw/AMASS_SMPLXG/GRAB/s9/duck_pass_1_stageii.npz
Output file: ../robot/ik_based/pkl/010251.pkl
Robot type: unitree_g1
Processing time: 472.79 seconds

STEP-BY-STEP TIMING:
  Step 1 - Load SMPLX:        93.42s
  Step 2 - Align FPS:         25.34s
  Step 3 - Init Retarget:     7.53s
  Step 4 - Init Visualization: 0.07s
  Step 5 - Process Frames:    318.00s (avg: 2.321s/frame)
  Step 6 - Convert Arrays:    0.14s
  Step 7 - Forward Kinematics: 14.45s
  Step 8 - Save Data:         0.22s
Status: SUCCESS
==================================================

=== SUCCESS LOG - 2025-10-14 21:38:27 ===
Input file: /data/retarget/locomotion/raw/AMASS_SMPLXG/GRAB/s9/cylindersmall_inspect_1_stageii.npz
Output file: ../robot/ik_based/pkl/010246.pkl
Robot type: unitree_g1
Processing time: 543.64 seconds

STEP-BY-STEP TIMING:
  Step 1 - Load SMPLX:        90.26s
  Step 2 - Align FPS:         36.32s
  Step 3 - Init Retarget:     1.64s
  Step 4 - Init Visualization: 0.11s
  Step 5 - Process Frames:    386.29s (avg: 2.341s/frame)
  Step 6 - Convert Arrays:    0.00s
  Step 7 - Forward Kinematics: 15.53s
  Step 8 - Save Data:         0.20s
Status: SUCCESS
==================================================

=== SUCCESS LOG - 2025-10-14 21:38:33 ===
Input file: /data/retarget/locomotion/raw/AMASS_SMPLXG/GRAB/s9/duck_inspect_1_stageii.npz
Output file: ../robot/ik_based/pkl/010250.pkl
Robot type: unitree_g1
Processing time: 507.78 seconds

STEP-BY-STEP TIMING:
  Step 1 - Load SMPLX:        91.73s
  Step 2 - Align FPS:         30.41s
  Step 3 - Init Retarget:     13.92s
  Step 4 - Init Visualization: 0.29s
  Step 5 - Process Frames:    341.79s (avg: 2.325s/frame)
  Step 6 - Convert Arrays:    0.00s
  Step 7 - Forward Kinematics: 15.66s
  Step 8 - Save Data:         0.28s
Status: SUCCESS
==================================================

=== SUCCESS LOG - 2025-10-14 21:38:56 ===
Input file: /data/retarget/locomotion/raw/AMASS_SMPLXG/GRAB/s9/elephant_pass_1_stageii.npz
Output file: ../robot/ik_based/pkl/010254.pkl
Robot type: unitree_g1
Processing time: 479.96 seconds

STEP-BY-STEP TIMING:
  Step 1 - Load SMPLX:        97.26s
  Step 2 - Align FPS:         32.00s
  Step 3 - Init Retarget:     6.22s
  Step 4 - Init Visualization: 0.05s
  Step 5 - Process Frames:    315.12s (avg: 2.352s/frame)
  Step 6 - Convert Arrays:    0.43s
  Step 7 - Forward Kinematics: 16.15s
  Step 8 - Save Data:         0.27s
Status: SUCCESS
==================================================

=== ERROR LOG - 2025-10-14 21:39:02 ===
Input file: /data/retarget/locomotion/raw/AMASS_SMPLXG/GRAB/s9/male_stagei.npz
Output file: ../robot/ik_based/pkl/010278.pkl
Robot type: unitree_g1
Processing time: 88.88 seconds
Error message: 'pose_body is not a file in the archive'
Error type: KeyError
==================================================

=== SUCCESS LOG - 2025-10-14 21:39:05 ===
Input file: /data/retarget/locomotion/raw/AMASS_SMPLXG/GRAB/s9/cylindersmall_pass_1_stageii.npz
Output file: ../robot/ik_based/pkl/010247.pkl
Robot type: unitree_g1
Processing time: 578.34 seconds

STEP-BY-STEP TIMING:
  Step 1 - Load SMPLX:        88.47s
  Step 2 - Align FPS:         40.90s
  Step 3 - Init Retarget:     3.25s
  Step 4 - Init Visualization: 0.00s
  Step 5 - Process Frames:    417.81s (avg: 2.443s/frame)
  Step 6 - Convert Arrays:    0.02s
  Step 7 - Forward Kinematics: 13.52s
  Step 8 - Save Data:         0.27s
Status: SUCCESS
==================================================

=== SUCCESS LOG - 2025-10-14 21:39:09 ===
Input file: /data/retarget/locomotion/raw/AMASS_SMPLXG/GRAB/s9/airplane_pick_all_stageii.npz
Output file: ../robot/ik_based/pkl/010208.pkl
Robot type: unitree_g1
Processing time: 1202.23 seconds

STEP-BY-STEP TIMING:
  Step 1 - Load SMPLX:        99.09s
  Step 2 - Align FPS:         75.94s
  Step 3 - Init Retarget:     9.75s
  Step 4 - Init Visualization: 0.03s
  Step 5 - Process Frames:    989.85s (avg: 2.033s/frame)
  Step 6 - Convert Arrays:    0.01s
  Step 7 - Forward Kinematics: 12.72s
  Step 8 - Save Data:         0.33s
Status: SUCCESS
==================================================

=== SUCCESS LOG - 2025-10-14 21:39:18 ===
Input file: /data/retarget/locomotion/raw/AMASS_SMPLXG/GRAB/s9/doorknob_use_2_stageii.npz
Output file: ../robot/ik_based/pkl/010249.pkl
Robot type: unitree_g1
Processing time: 556.45 seconds

STEP-BY-STEP TIMING:
  Step 1 - Load SMPLX:        91.74s
  Step 2 - Align FPS:         34.30s
  Step 3 - Init Retarget:     11.17s
  Step 4 - Init Visualization: 0.13s
  Step 5 - Process Frames:    388.22s (avg: 2.396s/frame)
  Step 6 - Convert Arrays:    0.03s
  Step 7 - Forward Kinematics: 17.37s
  Step 8 - Save Data:         0.21s
Status: SUCCESS
==================================================

=== SUCCESS LOG - 2025-10-14 21:39:27 ===
Input file: /data/retarget/locomotion/raw/AMASS_SMPLXG/GRAB/s9/elephant_inspect_1_stageii.npz
Output file: ../robot/ik_based/pkl/010253.pkl
Robot type: unitree_g1
Processing time: 514.93 seconds

STEP-BY-STEP TIMING:
  Step 1 - Load SMPLX:        94.88s
  Step 2 - Align FPS:         37.03s
  Step 3 - Init Retarget:     6.01s
  Step 4 - Init Visualization: 0.05s
  Step 5 - Process Frames:    347.95s (avg: 2.245s/frame)
  Step 6 - Convert Arrays:    0.06s
  Step 7 - Forward Kinematics: 16.31s
  Step 8 - Save Data:         0.25s
Status: SUCCESS
==================================================

=== SUCCESS LOG - 2025-10-14 21:39:51 ===
Input file: /data/retarget/locomotion/raw/AMASS_SMPLXG/GRAB/s9/camera_browse_1_stageii.npz
Output file: ../robot/ik_based/pkl/010225.pkl
Robot type: unitree_g1
Processing time: 933.86 seconds

STEP-BY-STEP TIMING:
  Step 1 - Load SMPLX:        96.22s
  Step 2 - Align FPS:         79.43s
  Step 3 - Init Retarget:     1.80s
  Step 4 - Init Visualization: 0.00s
  Step 5 - Process Frames:    731.49s (avg: 2.151s/frame)
  Step 6 - Convert Arrays:    0.02s
  Step 7 - Forward Kinematics: 13.97s
  Step 8 - Save Data:         0.43s
Status: SUCCESS
==================================================

=== SUCCESS LOG - 2025-10-14 21:40:04 ===
Input file: /data/retarget/locomotion/raw/AMASS_SMPLXG/GRAB/s8/wineglass_pick_all_stageii.npz
Output file: ../robot/ik_based/pkl/010204.pkl
Robot type: unitree_g1
Processing time: 1331.52 seconds

STEP-BY-STEP TIMING:
  Step 1 - Load SMPLX:        96.76s
  Step 2 - Align FPS:         110.84s
  Step 3 - Init Retarget:     2.81s
  Step 4 - Init Visualization: 0.00s
  Step 5 - Process Frames:    1094.16s (avg: 1.923s/frame)
  Step 6 - Convert Arrays:    0.02s
  Step 7 - Forward Kinematics: 14.60s
  Step 8 - Save Data:         0.51s
Status: SUCCESS
==================================================
