
=== SKIPPED (ALREADY EXISTS) - 2025-10-14 21:40:36 ===
File index: 008450
Input file: /data/retarget/locomotion/raw/AMASS_SMPLXG/Eyes_Japan_Dataset/hamada/throw_toss-05-both_hands_over_heavy-hamada_stageii.npz
Output file: ../robot/ik_based/pkl/008450.pkl
Status: SKIPPED (ALREADY EXISTS)
==================================================

=== SKIPPED (ALREADY EXISTS) - 2025-10-14 21:40:36 ===
File index: 008451
Input file: /data/retarget/locomotion/raw/AMASS_SMPLXG/Eyes_Japan_Dataset/hamada/throw_toss-06-both_hands_under_light-hamada_stageii.npz
Output file: ../robot/ik_based/pkl/008451.pkl
Status: SKIPPED (ALREADY EXISTS)
==================================================

=== SKIPPED (ALREADY EXISTS) - 2025-10-14 21:40:36 ===
File index: 008452
Input file: /data/retarget/locomotion/raw/AMASS_SMPLXG/Eyes_Japan_Dataset/hamada/throw_toss-07-both_hands_under_heavy-hamada_stageii.npz
Output file: ../robot/ik_based/pkl/008452.pkl
Status: SKIPPED (ALREADY EXISTS)
==================================================

=== SKIPPED (ALREADY EXISTS) - 2025-10-14 21:40:36 ===
File index: 008453
Input file: /data/retarget/locomotion/raw/AMASS_SMPLXG/Eyes_Japan_Dataset/hamada/throw_toss-12-dart-hamada_stageii.npz
Output file: ../robot/ik_based/pkl/008453.pkl
Status: SKIPPED (ALREADY EXISTS)
==================================================

=== SKIPPED (ALREADY EXISTS) - 2025-10-14 21:40:36 ===
File index: 008454
Input file: /data/retarget/locomotion/raw/AMASS_SMPLXG/Eyes_Japan_Dataset/hamada/throw_toss-13-pass_to_right_light-hamada_stageii.npz
Output file: ../robot/ik_based/pkl/008454.pkl
Status: SKIPPED (ALREADY EXISTS)
==================================================

=== SKIPPED (ALREADY EXISTS) - 2025-10-14 21:40:36 ===
File index: 008455
Input file: /data/retarget/locomotion/raw/AMASS_SMPLXG/Eyes_Japan_Dataset/hamada/throw_toss-14-pass_to_right_heavy-hamada_stageii.npz
Output file: ../robot/ik_based/pkl/008455.pkl
Status: SKIPPED (ALREADY EXISTS)
==================================================

=== SKIPPED (ALREADY EXISTS) - 2025-10-14 21:40:36 ===
File index: 008456
Input file: /data/retarget/locomotion/raw/AMASS_SMPLXG/Eyes_Japan_Dataset/hamada/throw_toss-15-pass_to_left_light-hamada_stageii.npz
Output file: ../robot/ik_based/pkl/008456.pkl
Status: SKIPPED (ALREADY EXISTS)
==================================================

=== SKIPPED (ALREADY EXISTS) - 2025-10-14 21:40:36 ===
File index: 008457
Input file: /data/retarget/locomotion/raw/AMASS_SMPLXG/Eyes_Japan_Dataset/hamada/throw_toss-16-pass_to_left_heavy-hamada_stageii.npz
Output file: ../robot/ik_based/pkl/008457.pkl
Status: SKIPPED (ALREADY EXISTS)
==================================================

=== SKIPPED (ALREADY EXISTS) - 2025-10-14 21:40:36 ===
File index: 008458
Input file: /data/retarget/locomotion/raw/AMASS_SMPLXG/Eyes_Japan_Dataset/hamada/throw_toss-17-pass_to_back_light-hamada_stageii.npz
Output file: ../robot/ik_based/pkl/008458.pkl
Status: SKIPPED (ALREADY EXISTS)
==================================================

=== SKIPPED (ALREADY EXISTS) - 2025-10-14 21:40:36 ===
File index: 008459
Input file: /data/retarget/locomotion/raw/AMASS_SMPLXG/Eyes_Japan_Dataset/hamada/throw_toss-18-pass_to_back_heavy-hamada_stageii.npz
Output file: ../robot/ik_based/pkl/008459.pkl
Status: SKIPPED (ALREADY EXISTS)
==================================================

=== SKIPPED (ALREADY EXISTS) - 2025-10-14 21:40:36 ===
File index: 008460
Input file: /data/retarget/locomotion/raw/AMASS_SMPLXG/Eyes_Japan_Dataset/hamada/throw_toss-19-pass_to_front_light-hamada_stageii.npz
Output file: ../robot/ik_based/pkl/008460.pkl
Status: SKIPPED (ALREADY EXISTS)
==================================================

=== SKIPPED (ALREADY EXISTS) - 2025-10-14 21:40:36 ===
File index: 008461
Input file: /data/retarget/locomotion/raw/AMASS_SMPLXG/Eyes_Japan_Dataset/hamada/throw_toss-20-pass_to_front_heavy-hamada_stageii.npz
Output file: ../robot/ik_based/pkl/008461.pkl
Status: SKIPPED (ALREADY EXISTS)
==================================================

=== SKIPPED (ALREADY EXISTS) - 2025-10-14 21:40:36 ===
File index: 008462
Input file: /data/retarget/locomotion/raw/AMASS_SMPLXG/Eyes_Japan_Dataset/hamada/turn-01-call-hamada_stageii.npz
Output file: ../robot/ik_based/pkl/008462.pkl
Status: SKIPPED (ALREADY EXISTS)
==================================================

=== SKIPPED (ALREADY EXISTS) - 2025-10-14 21:40:36 ===
File index: 008463
Input file: /data/retarget/locomotion/raw/AMASS_SMPLXG/Eyes_Japan_Dataset/hamada/turn-02-look_around-hamada_stageii.npz
Output file: ../robot/ik_based/pkl/008463.pkl
Status: SKIPPED (ALREADY EXISTS)
==================================================

=== SKIPPED (ALREADY EXISTS) - 2025-10-14 21:40:36 ===
File index: 008464
Input file: /data/retarget/locomotion/raw/AMASS_SMPLXG/Eyes_Japan_Dataset/hamada/turn-03-look_at-hamada_stageii.npz
Output file: ../robot/ik_based/pkl/008464.pkl
Status: SKIPPED (ALREADY EXISTS)
==================================================

=== SKIPPED (ALREADY EXISTS) - 2025-10-14 21:40:36 ===
File index: 008465
Input file: /data/retarget/locomotion/raw/AMASS_SMPLXG/Eyes_Japan_Dataset/hamada/turn-04-cartwheels-hamada_stageii.npz
Output file: ../robot/ik_based/pkl/008465.pkl
Status: SKIPPED (ALREADY EXISTS)
==================================================

=== SKIPPED (ALREADY EXISTS) - 2025-10-14 21:40:36 ===
File index: 008466
Input file: /data/retarget/locomotion/raw/AMASS_SMPLXG/Eyes_Japan_Dataset/hamada/turn-05-turn-hamada_stageii.npz
Output file: ../robot/ik_based/pkl/008466.pkl
Status: SKIPPED (ALREADY EXISTS)
==================================================

=== SKIPPED (ALREADY EXISTS) - 2025-10-14 21:40:36 ===
File index: 008467
Input file: /data/retarget/locomotion/raw/AMASS_SMPLXG/Eyes_Japan_Dataset/hamada/walk-01-normal-hamada_stageii.npz
Output file: ../robot/ik_based/pkl/008467.pkl
Status: SKIPPED (ALREADY EXISTS)
==================================================

=== SKIPPED (ALREADY EXISTS) - 2025-10-14 21:40:36 ===
File index: 008468
Input file: /data/retarget/locomotion/raw/AMASS_SMPLXG/Eyes_Japan_Dataset/hamada/walk-02-drank-hamada_stageii.npz
Output file: ../robot/ik_based/pkl/008468.pkl
Status: SKIPPED (ALREADY EXISTS)
==================================================

=== SKIPPED (ALREADY EXISTS) - 2025-10-14 21:40:36 ===
File index: 008469
Input file: /data/retarget/locomotion/raw/AMASS_SMPLXG/Eyes_Japan_Dataset/hamada/walk-03-sneak-hamada_stageii.npz
Output file: ../robot/ik_based/pkl/008469.pkl
Status: SKIPPED (ALREADY EXISTS)
==================================================

=== SKIPPED (ALREADY EXISTS) - 2025-10-14 21:40:36 ===
File index: 008470
Input file: /data/retarget/locomotion/raw/AMASS_SMPLXG/Eyes_Japan_Dataset/hamada/walk-04-fast-hamada_stageii.npz
Output file: ../robot/ik_based/pkl/008470.pkl
Status: SKIPPED (ALREADY EXISTS)
==================================================

=== SKIPPED (ALREADY EXISTS) - 2025-10-14 21:40:36 ===
File index: 008471
Input file: /data/retarget/locomotion/raw/AMASS_SMPLXG/Eyes_Japan_Dataset/hamada/walk-05-backward-hamada_stageii.npz
Output file: ../robot/ik_based/pkl/008471.pkl
Status: SKIPPED (ALREADY EXISTS)
==================================================

=== SKIPPED (ALREADY EXISTS) - 2025-10-14 21:40:36 ===
File index: 008472
Input file: /data/retarget/locomotion/raw/AMASS_SMPLXG/Eyes_Japan_Dataset/hamada/walk-06-catwalk-hamada_stageii.npz
Output file: ../robot/ik_based/pkl/008472.pkl
Status: SKIPPED (ALREADY EXISTS)
==================================================

=== SKIPPED (ALREADY EXISTS) - 2025-10-14 21:40:36 ===
File index: 008473
Input file: /data/retarget/locomotion/raw/AMASS_SMPLXG/Eyes_Japan_Dataset/hamada/walk-07-moonwalk-hamada_stageii.npz
Output file: ../robot/ik_based/pkl/008473.pkl
Status: SKIPPED (ALREADY EXISTS)
==================================================

=== SKIPPED (ALREADY EXISTS) - 2025-10-14 21:40:36 ===
File index: 008474
Input file: /data/retarget/locomotion/raw/AMASS_SMPLXG/Eyes_Japan_Dataset/hamada/walk-08-lookfor-hamada_stageii.npz
Output file: ../robot/ik_based/pkl/008474.pkl
Status: SKIPPED (ALREADY EXISTS)
==================================================

=== SKIPPED (ALREADY EXISTS) - 2025-10-14 21:40:36 ===
File index: 008475
Input file: /data/retarget/locomotion/raw/AMASS_SMPLXG/Eyes_Japan_Dataset/hamada/walk-09-handbag-hamada_stageii.npz
Output file: ../robot/ik_based/pkl/008475.pkl
Status: SKIPPED (ALREADY EXISTS)
==================================================

=== SKIPPED (ALREADY EXISTS) - 2025-10-14 21:40:36 ===
File index: 008476
Input file: /data/retarget/locomotion/raw/AMASS_SMPLXG/Eyes_Japan_Dataset/hamada/walk-10-shoulder_bag-hamada_stageii.npz
Output file: ../robot/ik_based/pkl/008476.pkl
Status: SKIPPED (ALREADY EXISTS)
==================================================

=== SKIPPED (ALREADY EXISTS) - 2025-10-14 21:40:36 ===
File index: 008477
Input file: /data/retarget/locomotion/raw/AMASS_SMPLXG/Eyes_Japan_Dataset/hamada/walk-11-baggage_on_the_head-hamada_stageii.npz
Output file: ../robot/ik_based/pkl/008477.pkl
Status: SKIPPED (ALREADY EXISTS)
==================================================

=== SKIPPED (ALREADY EXISTS) - 2025-10-14 21:40:36 ===
File index: 008478
Input file: /data/retarget/locomotion/raw/AMASS_SMPLXG/Eyes_Japan_Dataset/hamada/walk-12-underarm_bag-hamada_stageii.npz
Output file: ../robot/ik_based/pkl/008478.pkl
Status: SKIPPED (ALREADY EXISTS)
==================================================

=== SKIPPED (ALREADY EXISTS) - 2025-10-14 21:40:36 ===
File index: 008479
Input file: /data/retarget/locomotion/raw/AMASS_SMPLXG/Eyes_Japan_Dataset/hamada/walk-13-baggage_on_the_shoulder-hamada_stageii.npz
Output file: ../robot/ik_based/pkl/008479.pkl
Status: SKIPPED (ALREADY EXISTS)
==================================================

=== SKIPPED (ALREADY EXISTS) - 2025-10-14 21:40:36 ===
File index: 008480
Input file: /data/retarget/locomotion/raw/AMASS_SMPLXG/Eyes_Japan_Dataset/hamada/walk-14-backpack-hamada_stageii.npz
Output file: ../robot/ik_based/pkl/008480.pkl
Status: SKIPPED (ALREADY EXISTS)
==================================================

=== SKIPPED (ALREADY EXISTS) - 2025-10-14 21:40:36 ===
File index: 008481
Input file: /data/retarget/locomotion/raw/AMASS_SMPLXG/Eyes_Japan_Dataset/hamada/walk-15-pull-hamada_stageii.npz
Output file: ../robot/ik_based/pkl/008481.pkl
Status: SKIPPED (ALREADY EXISTS)
==================================================

=== SKIPPED (ALREADY EXISTS) - 2025-10-14 21:40:36 ===
File index: 008482
Input file: /data/retarget/locomotion/raw/AMASS_SMPLXG/Eyes_Japan_Dataset/hamada/walk-16-push_by_hand-hamada_stageii.npz
Output file: ../robot/ik_based/pkl/008482.pkl
Status: SKIPPED (ALREADY EXISTS)
==================================================

=== SKIPPED (ALREADY EXISTS) - 2025-10-14 21:40:36 ===
File index: 008483
Input file: /data/retarget/locomotion/raw/AMASS_SMPLXG/Eyes_Japan_Dataset/hamada/walk-17-push_by_back-hamada_stageii.npz
Output file: ../robot/ik_based/pkl/008483.pkl
Status: SKIPPED (ALREADY EXISTS)
==================================================

=== SKIPPED (ALREADY EXISTS) - 2025-10-14 21:40:36 ===
File index: 008484
Input file: /data/retarget/locomotion/raw/AMASS_SMPLXG/Eyes_Japan_Dataset/hamada/walk-18-shuffle_forward-hamada_stageii.npz
Output file: ../robot/ik_based/pkl/008484.pkl
Status: SKIPPED (ALREADY EXISTS)
==================================================

=== SKIPPED (ALREADY EXISTS) - 2025-10-14 21:40:36 ===
File index: 008485
Input file: /data/retarget/locomotion/raw/AMASS_SMPLXG/Eyes_Japan_Dataset/hamada/walk-19-shuffle_backward-hamada_stageii.npz
Output file: ../robot/ik_based/pkl/008485.pkl
Status: SKIPPED (ALREADY EXISTS)
==================================================

=== SKIPPED (ALREADY EXISTS) - 2025-10-14 21:40:36 ===
File index: 008486
Input file: /data/retarget/locomotion/raw/AMASS_SMPLXG/Eyes_Japan_Dataset/hamada/walk-20-cane-hamada_stageii.npz
Output file: ../robot/ik_based/pkl/008486.pkl
Status: SKIPPED (ALREADY EXISTS)
==================================================

=== SKIPPED (ALREADY EXISTS) - 2025-10-14 21:40:36 ===
File index: 008487
Input file: /data/retarget/locomotion/raw/AMASS_SMPLXG/Eyes_Japan_Dataset/hamada/walk-21-one_leg-hamada_stageii.npz
Output file: ../robot/ik_based/pkl/008487.pkl
Status: SKIPPED (ALREADY EXISTS)
==================================================

=== SKIPPED (ALREADY EXISTS) - 2025-10-14 21:40:36 ===
File index: 008488
Input file: /data/retarget/locomotion/raw/AMASS_SMPLXG/Eyes_Japan_Dataset/hamada/walk-22-look_around-hamada_stageii.npz
Output file: ../robot/ik_based/pkl/008488.pkl
Status: SKIPPED (ALREADY EXISTS)
==================================================

=== SKIPPED (ALREADY EXISTS) - 2025-10-14 21:40:36 ===
File index: 008489
Input file: /data/retarget/locomotion/raw/AMASS_SMPLXG/Eyes_Japan_Dataset/hamada/walk-23-shuffle_oneleg-hamada_stageii.npz
Output file: ../robot/ik_based/pkl/008489.pkl
Status: SKIPPED (ALREADY EXISTS)
==================================================

=== SKIPPED (ALREADY EXISTS) - 2025-10-14 21:40:36 ===
File index: 008490
Input file: /data/retarget/locomotion/raw/AMASS_SMPLXG/Eyes_Japan_Dataset/hamada/walk-25-tired-hamada_stageii.npz
Output file: ../robot/ik_based/pkl/008490.pkl
Status: SKIPPED (ALREADY EXISTS)
==================================================

=== SKIPPED (ALREADY EXISTS) - 2025-10-14 21:40:36 ===
File index: 008491
Input file: /data/retarget/locomotion/raw/AMASS_SMPLXG/Eyes_Japan_Dataset/hamada/walk-26-exhausted-hamada_stageii.npz
Output file: ../robot/ik_based/pkl/008491.pkl
Status: SKIPPED (ALREADY EXISTS)
==================================================

=== SKIPPED (ALREADY EXISTS) - 2025-10-14 21:40:36 ===
File index: 008492
Input file: /data/retarget/locomotion/raw/AMASS_SMPLXG/Eyes_Japan_Dataset/hamada/walk-27-thinking-hamada_stageii.npz
Output file: ../robot/ik_based/pkl/008492.pkl
Status: SKIPPED (ALREADY EXISTS)
==================================================

=== SKIPPED (ALREADY EXISTS) - 2025-10-14 21:40:36 ===
File index: 008493
Input file: /data/retarget/locomotion/raw/AMASS_SMPLXG/Eyes_Japan_Dataset/hamada/walk-28-look_up-hamada_stageii.npz
Output file: ../robot/ik_based/pkl/008493.pkl
Status: SKIPPED (ALREADY EXISTS)
==================================================

=== SKIPPED (ALREADY EXISTS) - 2025-10-14 21:40:36 ===
File index: 008494
Input file: /data/retarget/locomotion/raw/AMASS_SMPLXG/Eyes_Japan_Dataset/hamada/walk-29-look_down-hamada_stageii.npz
Output file: ../robot/ik_based/pkl/008494.pkl
Status: SKIPPED (ALREADY EXISTS)
==================================================

=== SKIPPED (ALREADY EXISTS) - 2025-10-14 21:40:36 ===
File index: 008495
Input file: /data/retarget/locomotion/raw/AMASS_SMPLXG/Eyes_Japan_Dataset/ichige/accident-09-damage_leftfoot-ichige_stageii.npz
Output file: ../robot/ik_based/pkl/008495.pkl
Status: SKIPPED (ALREADY EXISTS)
==================================================

=== SKIPPED (ALREADY EXISTS) - 2025-10-14 21:40:36 ===
File index: 008496
Input file: /data/retarget/locomotion/raw/AMASS_SMPLXG/Eyes_Japan_Dataset/ichige/gesture_etc-04-set_4-ichige_stageii.npz
Output file: ../robot/ik_based/pkl/008496.pkl
Status: SKIPPED (ALREADY EXISTS)
==================================================

=== SKIPPED (ALREADY EXISTS) - 2025-10-14 21:40:36 ===
File index: 008497
Input file: /data/retarget/locomotion/raw/AMASS_SMPLXG/Eyes_Japan_Dataset/ichige/gesture_etc-05-touch_nose-ichige_stageii.npz
Output file: ../robot/ik_based/pkl/008497.pkl
Status: SKIPPED (ALREADY EXISTS)
==================================================

=== SKIPPED (ALREADY EXISTS) - 2025-10-14 21:40:36 ===
File index: 008498
Input file: /data/retarget/locomotion/raw/AMASS_SMPLXG/Eyes_Japan_Dataset/ichige/gesture_etc-14-apologize-ichige_stageii.npz
Output file: ../robot/ik_based/pkl/008498.pkl
Status: SKIPPED (ALREADY EXISTS)
==================================================

=== SKIPPED (ALREADY EXISTS) - 2025-10-14 21:40:36 ===
File index: 008499
Input file: /data/retarget/locomotion/raw/AMASS_SMPLXG/Eyes_Japan_Dataset/ichige/gesture_etc-18-eat-ichige_stageii.npz
Output file: ../robot/ik_based/pkl/008499.pkl
Status: SKIPPED (ALREADY EXISTS)
==================================================

=== SKIPPED (ALREADY EXISTS) - 2025-10-14 21:40:36 ===
File index: 008500
Input file: /data/retarget/locomotion/raw/AMASS_SMPLXG/Eyes_Japan_Dataset/ichige/gesture_etc-19-fold_legs-ichige_stageii.npz
Output file: ../robot/ik_based/pkl/008500.pkl
Status: SKIPPED (ALREADY EXISTS)
==================================================

=== SKIPPED (ALREADY EXISTS) - 2025-10-14 21:40:36 ===
File index: 008501
Input file: /data/retarget/locomotion/raw/AMASS_SMPLXG/Eyes_Japan_Dataset/ichige/gesture_etc-23-mobile_call-ichige_stageii.npz
Output file: ../robot/ik_based/pkl/008501.pkl
Status: SKIPPED (ALREADY EXISTS)
==================================================

=== SKIPPED (ALREADY EXISTS) - 2025-10-14 21:40:36 ===
File index: 008502
Input file: /data/retarget/locomotion/raw/AMASS_SMPLXG/Eyes_Japan_Dataset/ichige/gesture_etc-35-west_side-ichige_stageii.npz
Output file: ../robot/ik_based/pkl/008502.pkl
Status: SKIPPED (ALREADY EXISTS)
==================================================

=== SKIPPED (ALREADY EXISTS) - 2025-10-14 21:40:36 ===
File index: 008503
Input file: /data/retarget/locomotion/raw/AMASS_SMPLXG/Eyes_Japan_Dataset/ichige/gesture_etc-38-hand_language-ichige_stageii.npz
Output file: ../robot/ik_based/pkl/008503.pkl
Status: SKIPPED (ALREADY EXISTS)
==================================================

=== SKIPPED (ALREADY EXISTS) - 2025-10-14 21:40:36 ===
File index: 008504
Input file: /data/retarget/locomotion/raw/AMASS_SMPLXG/Eyes_Japan_Dataset/ichige/gesture_etc-39-giant_baba-ichige_stageii.npz
Output file: ../robot/ik_based/pkl/008504.pkl
Status: SKIPPED (ALREADY EXISTS)
==================================================

=== SKIPPED (ALREADY EXISTS) - 2025-10-14 21:40:36 ===
File index: 008505
Input file: /data/retarget/locomotion/raw/AMASS_SMPLXG/Eyes_Japan_Dataset/ichige/jump-01-normal-ichige_stageii.npz
Output file: ../robot/ik_based/pkl/008505.pkl
Status: SKIPPED (ALREADY EXISTS)
==================================================

=== SKIPPED (ALREADY EXISTS) - 2025-10-14 21:40:36 ===
File index: 008506
Input file: /data/retarget/locomotion/raw/AMASS_SMPLXG/Eyes_Japan_Dataset/ichige/jump-04-horizontal-ichige_stageii.npz
Output file: ../robot/ik_based/pkl/008506.pkl
Status: SKIPPED (ALREADY EXISTS)
==================================================

=== SKIPPED (ALREADY EXISTS) - 2025-10-14 21:40:36 ===
File index: 008507
Input file: /data/retarget/locomotion/raw/AMASS_SMPLXG/Eyes_Japan_Dataset/ichige/jump-07-rope_double-ichige_stageii.npz
Output file: ../robot/ik_based/pkl/008507.pkl
Status: SKIPPED (ALREADY EXISTS)
==================================================

=== SKIPPED (ALREADY EXISTS) - 2025-10-14 21:40:36 ===
File index: 008508
Input file: /data/retarget/locomotion/raw/AMASS_SMPLXG/Eyes_Japan_Dataset/ichige/jump-13-matrix-ichige_stageii.npz
Output file: ../robot/ik_based/pkl/008508.pkl
Status: SKIPPED (ALREADY EXISTS)
==================================================

=== ERROR LOG - 2025-10-14 21:40:40 ===
Input file: /data/retarget/locomotion/raw/AMASS_SMPLXG/Eyes_Japan_Dataset/ichige/male_stagei.npz
Output file: ../robot/ik_based/pkl/008509.pkl
Robot type: unitree_g1
Processing time: 3.57 seconds
Error message: 'pose_body is not a file in the archive'
Error type: KeyError
==================================================

=== FILE FAILURE - 2025-10-14 21:40:40 ===
File index: 008509
File number: 60/9307
Input file: /data/retarget/locomotion/raw/AMASS_SMPLXG/Eyes_Japan_Dataset/ichige/male_stagei.npz
Output file: ../robot/ik_based/pkl/008509.pkl
Processing time: 3.57 seconds
Total file time: 4.02 seconds
Status: FAILED
==================================================

=== SKIPPED (ALREADY EXISTS) - 2025-10-14 21:40:40 ===
File index: 008510
Input file: /data/retarget/locomotion/raw/AMASS_SMPLXG/Eyes_Japan_Dataset/ichige/pain-01-headache-ichige_stageii.npz
Output file: ../robot/ik_based/pkl/008510.pkl
Status: SKIPPED (ALREADY EXISTS)
==================================================

=== SKIPPED (ALREADY EXISTS) - 2025-10-14 21:40:40 ===
File index: 008511
Input file: /data/retarget/locomotion/raw/AMASS_SMPLXG/Eyes_Japan_Dataset/ichige/pose-02-rest-ichige_stageii.npz
Output file: ../robot/ik_based/pkl/008511.pkl
Status: SKIPPED (ALREADY EXISTS)
==================================================

=== SKIPPED (ALREADY EXISTS) - 2025-10-14 21:40:40 ===
File index: 008512
Input file: /data/retarget/locomotion/raw/AMASS_SMPLXG/Eyes_Japan_Dataset/ichige/pose-12-body_building-ichige_stageii.npz
Output file: ../robot/ik_based/pkl/008512.pkl
Status: SKIPPED (ALREADY EXISTS)
==================================================

=== SKIPPED (ALREADY EXISTS) - 2025-10-14 21:40:40 ===
File index: 008513
Input file: /data/retarget/locomotion/raw/AMASS_SMPLXG/Eyes_Japan_Dataset/ichige/sitdown_standup-11-one_knee_drawn_up-ichige_stageii.npz
Output file: ../robot/ik_based/pkl/008513.pkl
Status: SKIPPED (ALREADY EXISTS)
==================================================

=== SKIPPED (ALREADY EXISTS) - 2025-10-14 21:40:40 ===
File index: 008514
Input file: /data/retarget/locomotion/raw/AMASS_SMPLXG/Eyes_Japan_Dataset/ichige/soccer-03-volley_kick-ichige_stageii.npz
Output file: ../robot/ik_based/pkl/008514.pkl
Status: SKIPPED (ALREADY EXISTS)
==================================================

=== SKIPPED (ALREADY EXISTS) - 2025-10-14 21:40:40 ===
File index: 008515
Input file: /data/retarget/locomotion/raw/AMASS_SMPLXG/Eyes_Japan_Dataset/ichige/soccer-06-pass_outside-ichige_stageii.npz
Output file: ../robot/ik_based/pkl/008515.pkl
Status: SKIPPED (ALREADY EXISTS)
==================================================

=== SKIPPED (ALREADY EXISTS) - 2025-10-14 21:40:40 ===
File index: 008516
Input file: /data/retarget/locomotion/raw/AMASS_SMPLXG/Eyes_Japan_Dataset/ichige/soccer-11-dribble_3-ichige_stageii.npz
Output file: ../robot/ik_based/pkl/008516.pkl
Status: SKIPPED (ALREADY EXISTS)
==================================================

=== SKIPPED (ALREADY EXISTS) - 2025-10-14 21:40:40 ===
File index: 008517
Input file: /data/retarget/locomotion/raw/AMASS_SMPLXG/Eyes_Japan_Dataset/ichige/soccer-24-dribble_shoot-ichige_stageii.npz
Output file: ../robot/ik_based/pkl/008517.pkl
Status: SKIPPED (ALREADY EXISTS)
==================================================

=== SKIPPED (ALREADY EXISTS) - 2025-10-14 21:40:40 ===
File index: 008518
Input file: /data/retarget/locomotion/raw/AMASS_SMPLXG/Eyes_Japan_Dataset/ichige/soccer-27-pk_inside-ichige_stageii.npz
Output file: ../robot/ik_based/pkl/008518.pkl
Status: SKIPPED (ALREADY EXISTS)
==================================================

=== SKIPPED (ALREADY EXISTS) - 2025-10-14 21:40:40 ===
File index: 008519
Input file: /data/retarget/locomotion/raw/AMASS_SMPLXG/Eyes_Japan_Dataset/ichige/soccer-28-pk_feint-ichige_stageii.npz
Output file: ../robot/ik_based/pkl/008519.pkl
Status: SKIPPED (ALREADY EXISTS)
==================================================

=== SKIPPED (ALREADY EXISTS) - 2025-10-14 21:40:40 ===
File index: 008520
Input file: /data/retarget/locomotion/raw/AMASS_SMPLXG/Eyes_Japan_Dataset/ichige/soccer-29-heel_lift-ichige_stageii.npz
Output file: ../robot/ik_based/pkl/008520.pkl
Status: SKIPPED (ALREADY EXISTS)
==================================================

=== SKIPPED (ALREADY EXISTS) - 2025-10-14 21:40:40 ===
File index: 008521
Input file: /data/retarget/locomotion/raw/AMASS_SMPLXG/Eyes_Japan_Dataset/ichige/soccer-31-goal-ichige_stageii.npz
Output file: ../robot/ik_based/pkl/008521.pkl
Status: SKIPPED (ALREADY EXISTS)
==================================================

=== SKIPPED (ALREADY EXISTS) - 2025-10-14 21:40:40 ===
File index: 008522
Input file: /data/retarget/locomotion/raw/AMASS_SMPLXG/Eyes_Japan_Dataset/ichige/walk-07-moonwalk-ichige_stageii.npz
Output file: ../robot/ik_based/pkl/008522.pkl
Status: SKIPPED (ALREADY EXISTS)
==================================================

=== SKIPPED (ALREADY EXISTS) - 2025-10-14 21:40:40 ===
File index: 008523
Input file: /data/retarget/locomotion/raw/AMASS_SMPLXG/Eyes_Japan_Dataset/ichige/walk-29-look_down-ichige_stageii.npz
Output file: ../robot/ik_based/pkl/008523.pkl
Status: SKIPPED (ALREADY EXISTS)
==================================================

=== SKIPPED (ALREADY EXISTS) - 2025-10-14 21:40:40 ===
File index: 008524
Input file: /data/retarget/locomotion/raw/AMASS_SMPLXG/Eyes_Japan_Dataset/kaiwa/accident-01-dodge-kaiwa_stageii.npz
Output file: ../robot/ik_based/pkl/008524.pkl
Status: SKIPPED (ALREADY EXISTS)
==================================================

=== SKIPPED (ALREADY EXISTS) - 2025-10-14 21:40:40 ===
File index: 008525
Input file: /data/retarget/locomotion/raw/AMASS_SMPLXG/Eyes_Japan_Dataset/kaiwa/accident-02-dodge_fast-kaiwa_stageii.npz
Output file: ../robot/ik_based/pkl/008525.pkl
Status: SKIPPED (ALREADY EXISTS)
==================================================

=== SKIPPED (ALREADY EXISTS) - 2025-10-14 21:40:40 ===
File index: 008526
Input file: /data/retarget/locomotion/raw/AMASS_SMPLXG/Eyes_Japan_Dataset/kaiwa/accident-03-damage_head-kaiwa_stageii.npz
Output file: ../robot/ik_based/pkl/008526.pkl
Status: SKIPPED (ALREADY EXISTS)
==================================================

=== SKIPPED (ALREADY EXISTS) - 2025-10-14 21:40:40 ===
File index: 008527
Input file: /data/retarget/locomotion/raw/AMASS_SMPLXG/Eyes_Japan_Dataset/kaiwa/accident-04-damage_right_leg-kaiwa_stageii.npz
Output file: ../robot/ik_based/pkl/008527.pkl
Status: SKIPPED (ALREADY EXISTS)
==================================================

=== SKIPPED (ALREADY EXISTS) - 2025-10-14 21:40:40 ===
File index: 008528
Input file: /data/retarget/locomotion/raw/AMASS_SMPLXG/Eyes_Japan_Dataset/kaiwa/accident-05-damage_right_arm-kaiwa_stageii.npz
Output file: ../robot/ik_based/pkl/008528.pkl
Status: SKIPPED (ALREADY EXISTS)
==================================================

=== SKIPPED (ALREADY EXISTS) - 2025-10-14 21:40:40 ===
File index: 008529
Input file: /data/retarget/locomotion/raw/AMASS_SMPLXG/Eyes_Japan_Dataset/kaiwa/accident-07-damage_left_arm-kaiwa_stageii.npz
Output file: ../robot/ik_based/pkl/008529.pkl
Status: SKIPPED (ALREADY EXISTS)
==================================================

=== SKIPPED (ALREADY EXISTS) - 2025-10-14 21:40:40 ===
File index: 008530
Input file: /data/retarget/locomotion/raw/AMASS_SMPLXG/Eyes_Japan_Dataset/kaiwa/accident-08-damage_rightfoot-kaiwa_stageii.npz
Output file: ../robot/ik_based/pkl/008530.pkl
Status: SKIPPED (ALREADY EXISTS)
==================================================

=== SKIPPED (ALREADY EXISTS) - 2025-10-14 21:40:40 ===
File index: 008531
Input file: /data/retarget/locomotion/raw/AMASS_SMPLXG/Eyes_Japan_Dataset/kaiwa/accident-09-damage_leftfoot-kaiwa_stageii.npz
Output file: ../robot/ik_based/pkl/008531.pkl
Status: SKIPPED (ALREADY EXISTS)
==================================================

=== SKIPPED (ALREADY EXISTS) - 2025-10-14 21:40:40 ===
File index: 008532
Input file: /data/retarget/locomotion/raw/AMASS_SMPLXG/Eyes_Japan_Dataset/kaiwa/accident-10-spasm-kaiwa_stageii.npz
Output file: ../robot/ik_based/pkl/008532.pkl
Status: SKIPPED (ALREADY EXISTS)
==================================================

=== SKIPPED (ALREADY EXISTS) - 2025-10-14 21:40:40 ===
File index: 008533
Input file: /data/retarget/locomotion/raw/AMASS_SMPLXG/Eyes_Japan_Dataset/kaiwa/accident-12-twist_foot-kaiwa_stageii.npz
Output file: ../robot/ik_based/pkl/008533.pkl
Status: SKIPPED (ALREADY EXISTS)
==================================================

=== SKIPPED (ALREADY EXISTS) - 2025-10-14 21:40:40 ===
File index: 008534
Input file: /data/retarget/locomotion/raw/AMASS_SMPLXG/Eyes_Japan_Dataset/kaiwa/accident-13-damage_back-kaiwa_stageii.npz
Output file: ../robot/ik_based/pkl/008534.pkl
Status: SKIPPED (ALREADY EXISTS)
==================================================

=== SKIPPED (ALREADY EXISTS) - 2025-10-14 21:40:40 ===
File index: 008535
Input file: /data/retarget/locomotion/raw/AMASS_SMPLXG/Eyes_Japan_Dataset/kaiwa/accident-14-dodge_turn_down-kaiwa_stageii.npz
Output file: ../robot/ik_based/pkl/008535.pkl
Status: SKIPPED (ALREADY EXISTS)
==================================================

=== SKIPPED (ALREADY EXISTS) - 2025-10-14 21:40:40 ===
File index: 008536
Input file: /data/retarget/locomotion/raw/AMASS_SMPLXG/Eyes_Japan_Dataset/kaiwa/audience-01-standing_set_1-kaiwa_stageii.npz
Output file: ../robot/ik_based/pkl/008536.pkl
Status: SKIPPED (ALREADY EXISTS)
==================================================

=== SKIPPED (ALREADY EXISTS) - 2025-10-14 21:40:40 ===
File index: 008537
Input file: /data/retarget/locomotion/raw/AMASS_SMPLXG/Eyes_Japan_Dataset/kaiwa/audience-02-standing_set_2-kaiwa_stageii.npz
Output file: ../robot/ik_based/pkl/008537.pkl
Status: SKIPPED (ALREADY EXISTS)
==================================================

=== ERROR LOG - 2025-10-14 21:40:42 ===
Input file: /data/retarget/locomotion/raw/AMASS_SMPLXG/Eyes_Japan_Dataset/kaiwa/female_stagei.npz
Output file: ../robot/ik_based/pkl/008538.pkl
Robot type: unitree_g1
Processing time: 1.71 seconds
Error message: 'pose_body is not a file in the archive'
Error type: KeyError
==================================================

=== FILE FAILURE - 2025-10-14 21:40:42 ===
File index: 008538
File number: 89/9307
Input file: /data/retarget/locomotion/raw/AMASS_SMPLXG/Eyes_Japan_Dataset/kaiwa/female_stagei.npz
Output file: ../robot/ik_based/pkl/008538.pkl
Processing time: 1.71 seconds
Total file time: 2.05 seconds
Status: FAILED
==================================================

=== SKIPPED (ALREADY EXISTS) - 2025-10-14 21:40:42 ===
File index: 008539
Input file: /data/retarget/locomotion/raw/AMASS_SMPLXG/Eyes_Japan_Dataset/kaiwa/gesture_etc-01-set_1-kaiwa_stageii.npz
Output file: ../robot/ik_based/pkl/008539.pkl
Status: SKIPPED (ALREADY EXISTS)
==================================================

=== SKIPPED (ALREADY EXISTS) - 2025-10-14 21:40:42 ===
File index: 008540
Input file: /data/retarget/locomotion/raw/AMASS_SMPLXG/Eyes_Japan_Dataset/kaiwa/gesture_etc-03-set_3-kaiwa_stageii.npz
Output file: ../robot/ik_based/pkl/008540.pkl
Status: SKIPPED (ALREADY EXISTS)
==================================================

=== SKIPPED (ALREADY EXISTS) - 2025-10-14 21:40:42 ===
File index: 008541
Input file: /data/retarget/locomotion/raw/AMASS_SMPLXG/Eyes_Japan_Dataset/kaiwa/gesture_etc-05-touch_nose-kaiwa_stageii.npz
Output file: ../robot/ik_based/pkl/008541.pkl
Status: SKIPPED (ALREADY EXISTS)
==================================================

=== SKIPPED (ALREADY EXISTS) - 2025-10-14 21:40:42 ===
File index: 008542
Input file: /data/retarget/locomotion/raw/AMASS_SMPLXG/Eyes_Japan_Dataset/kaiwa/gesture_etc-06-jiggle_knee-kaiwa_stageii.npz
Output file: ../robot/ik_based/pkl/008542.pkl
Status: SKIPPED (ALREADY EXISTS)
==================================================

=== SKIPPED (ALREADY EXISTS) - 2025-10-14 21:40:42 ===
File index: 008543
Input file: /data/retarget/locomotion/raw/AMASS_SMPLXG/Eyes_Japan_Dataset/kaiwa/gesture_etc-07-over_stretch-kaiwa_stageii.npz
Output file: ../robot/ik_based/pkl/008543.pkl
Status: SKIPPED (ALREADY EXISTS)
==================================================

=== SKIPPED (ALREADY EXISTS) - 2025-10-14 21:40:42 ===
File index: 008544
Input file: /data/retarget/locomotion/raw/AMASS_SMPLXG/Eyes_Japan_Dataset/kaiwa/gesture_etc-09-scratch-kaiwa_stageii.npz
Output file: ../robot/ik_based/pkl/008544.pkl
Status: SKIPPED (ALREADY EXISTS)
==================================================

=== SKIPPED (ALREADY EXISTS) - 2025-10-14 21:40:42 ===
File index: 008545
Input file: /data/retarget/locomotion/raw/AMASS_SMPLXG/Eyes_Japan_Dataset/kaiwa/gesture_etc-17-drink-kaiwa_stageii.npz
Output file: ../robot/ik_based/pkl/008545.pkl
Status: SKIPPED (ALREADY EXISTS)
==================================================

=== SKIPPED (ALREADY EXISTS) - 2025-10-14 21:40:42 ===
File index: 008546
Input file: /data/retarget/locomotion/raw/AMASS_SMPLXG/Eyes_Japan_Dataset/kaiwa/gesture_etc-18-eat-kaiwa_stageii.npz
Output file: ../robot/ik_based/pkl/008546.pkl
Status: SKIPPED (ALREADY EXISTS)
==================================================

=== SKIPPED (ALREADY EXISTS) - 2025-10-14 21:40:42 ===
File index: 008547
Input file: /data/retarget/locomotion/raw/AMASS_SMPLXG/Eyes_Japan_Dataset/kaiwa/gesture_etc-22-mobile_receive-kaiwa_stageii.npz
Output file: ../robot/ik_based/pkl/008547.pkl
Status: SKIPPED (ALREADY EXISTS)
==================================================

=== SKIPPED (ALREADY EXISTS) - 2025-10-14 21:40:42 ===
File index: 008548
Input file: /data/retarget/locomotion/raw/AMASS_SMPLXG/Eyes_Japan_Dataset/kaiwa/gesture_etc-23-mobile_call-kaiwa_stageii.npz
Output file: ../robot/ik_based/pkl/008548.pkl
Status: SKIPPED (ALREADY EXISTS)
==================================================

=== SKIPPED (ALREADY EXISTS) - 2025-10-14 21:40:42 ===
File index: 008549
Input file: /data/retarget/locomotion/raw/AMASS_SMPLXG/Eyes_Japan_Dataset/kaiwa/gesture_etc-24-matrix-kaiwa_stageii.npz
Output file: ../robot/ik_based/pkl/008549.pkl
Status: SKIPPED (ALREADY EXISTS)
==================================================

=== SKIPPED (ALREADY EXISTS) - 2025-10-14 21:40:42 ===
File index: 008550
Input file: /data/retarget/locomotion/raw/AMASS_SMPLXG/Eyes_Japan_Dataset/kaiwa/gesture_etc-25-magic-kaiwa_stageii.npz
Output file: ../robot/ik_based/pkl/008550.pkl
Status: SKIPPED (ALREADY EXISTS)
==================================================

=== SKIPPED (ALREADY EXISTS) - 2025-10-14 21:40:43 ===
File index: 008551
Input file: /data/retarget/locomotion/raw/AMASS_SMPLXG/Eyes_Japan_Dataset/kaiwa/gesture_etc-29-pantomime-kaiwa_stageii.npz
Output file: ../robot/ik_based/pkl/008551.pkl
Status: SKIPPED (ALREADY EXISTS)
==================================================

=== SKIPPED (ALREADY EXISTS) - 2025-10-14 21:40:43 ===
File index: 008552
Input file: /data/retarget/locomotion/raw/AMASS_SMPLXG/Eyes_Japan_Dataset/kaiwa/gesture_etc-30-fxxk-kaiwa_stageii.npz
Output file: ../robot/ik_based/pkl/008552.pkl
Status: SKIPPED (ALREADY EXISTS)
==================================================

=== SKIPPED (ALREADY EXISTS) - 2025-10-14 21:40:43 ===
File index: 008553
Input file: /data/retarget/locomotion/raw/AMASS_SMPLXG/Eyes_Japan_Dataset/kaiwa/gesture_etc-31-ok-kaiwa_stageii.npz
Output file: ../robot/ik_based/pkl/008553.pkl
Status: SKIPPED (ALREADY EXISTS)
==================================================

=== SKIPPED (ALREADY EXISTS) - 2025-10-14 21:40:43 ===
File index: 008554
Input file: /data/retarget/locomotion/raw/AMASS_SMPLXG/Eyes_Japan_Dataset/kaiwa/gesture_etc-32-no-kaiwa_stageii.npz
Output file: ../robot/ik_based/pkl/008554.pkl
Status: SKIPPED (ALREADY EXISTS)
==================================================

=== SKIPPED (ALREADY EXISTS) - 2025-10-14 21:40:43 ===
File index: 008555
Input file: /data/retarget/locomotion/raw/AMASS_SMPLXG/Eyes_Japan_Dataset/kaiwa/gesture_etc-33-watch_here-kaiwa_stageii.npz
Output file: ../robot/ik_based/pkl/008555.pkl
Status: SKIPPED (ALREADY EXISTS)
==================================================

=== SKIPPED (ALREADY EXISTS) - 2025-10-14 21:40:43 ===
File index: 008556
Input file: /data/retarget/locomotion/raw/AMASS_SMPLXG/Eyes_Japan_Dataset/kaiwa/gesture_etc-34-peace-kaiwa_stageii.npz
Output file: ../robot/ik_based/pkl/008556.pkl
Status: SKIPPED (ALREADY EXISTS)
==================================================

=== SKIPPED (ALREADY EXISTS) - 2025-10-14 21:40:43 ===
File index: 008557
Input file: /data/retarget/locomotion/raw/AMASS_SMPLXG/Eyes_Japan_Dataset/kaiwa/gesture_etc-35-west_side-kaiwa_stageii.npz
Output file: ../robot/ik_based/pkl/008557.pkl
Status: SKIPPED (ALREADY EXISTS)
==================================================

=== SKIPPED (ALREADY EXISTS) - 2025-10-14 21:40:43 ===
File index: 008558
Input file: /data/retarget/locomotion/raw/AMASS_SMPLXG/Eyes_Japan_Dataset/kaiwa/gesture_etc-37-gay-kaiwa_stageii.npz
Output file: ../robot/ik_based/pkl/008558.pkl
Status: SKIPPED (ALREADY EXISTS)
==================================================

=== SKIPPED (ALREADY EXISTS) - 2025-10-14 21:40:43 ===
File index: 008559
Input file: /data/retarget/locomotion/raw/AMASS_SMPLXG/Eyes_Japan_Dataset/kaiwa/gesture_etc-38-hand_language-kaiwa_stageii.npz
Output file: ../robot/ik_based/pkl/008559.pkl
Status: SKIPPED (ALREADY EXISTS)
==================================================

=== SKIPPED (ALREADY EXISTS) - 2025-10-14 21:40:43 ===
File index: 008560
Input file: /data/retarget/locomotion/raw/AMASS_SMPLXG/Eyes_Japan_Dataset/kaiwa/gesture_etc-39-giant_baba-kaiwa_stageii.npz
Output file: ../robot/ik_based/pkl/008560.pkl
Status: SKIPPED (ALREADY EXISTS)
==================================================

=== SKIPPED (ALREADY EXISTS) - 2025-10-14 21:40:43 ===
File index: 008561
Input file: /data/retarget/locomotion/raw/AMASS_SMPLXG/Eyes_Japan_Dataset/kaiwa/gesture_etc-40-head_banging-kaiwa_stageii.npz
Output file: ../robot/ik_based/pkl/008561.pkl
Status: SKIPPED (ALREADY EXISTS)
==================================================

=== SKIPPED (ALREADY EXISTS) - 2025-10-14 21:40:43 ===
File index: 008562
Input file: /data/retarget/locomotion/raw/AMASS_SMPLXG/Eyes_Japan_Dataset/kaiwa/gesture_etc-41-mosh-kaiwa_stageii.npz
Output file: ../robot/ik_based/pkl/008562.pkl
Status: SKIPPED (ALREADY EXISTS)
==================================================

=== SKIPPED (ALREADY EXISTS) - 2025-10-14 21:40:43 ===
File index: 008563
Input file: /data/retarget/locomotion/raw/AMASS_SMPLXG/Eyes_Japan_Dataset/kaiwa/gesture_etc-42-hung_over-kaiwa_stageii.npz
Output file: ../robot/ik_based/pkl/008563.pkl
Status: SKIPPED (ALREADY EXISTS)
==================================================

=== SKIPPED (ALREADY EXISTS) - 2025-10-14 21:40:43 ===
File index: 008564
Input file: /data/retarget/locomotion/raw/AMASS_SMPLXG/Eyes_Japan_Dataset/kaiwa/gesture_etc-43-brush_teeth-kaiwa_stageii.npz
Output file: ../robot/ik_based/pkl/008564.pkl
Status: SKIPPED (ALREADY EXISTS)
==================================================

=== SKIPPED (ALREADY EXISTS) - 2025-10-14 21:40:43 ===
File index: 008565
Input file: /data/retarget/locomotion/raw/AMASS_SMPLXG/Eyes_Japan_Dataset/kaiwa/gesture_etc-45-feel_dizzy_-kaiwa_stageii.npz
Output file: ../robot/ik_based/pkl/008565.pkl
Status: SKIPPED (ALREADY EXISTS)
==================================================

=== SKIPPED (ALREADY EXISTS) - 2025-10-14 21:40:43 ===
File index: 008566
Input file: /data/retarget/locomotion/raw/AMASS_SMPLXG/Eyes_Japan_Dataset/kaiwa/gesture_etc-46-vomit_of_blood-kaiwa_stageii.npz
Output file: ../robot/ik_based/pkl/008566.pkl
Status: SKIPPED (ALREADY EXISTS)
==================================================

=== SKIPPED (ALREADY EXISTS) - 2025-10-14 21:40:43 ===
File index: 008567
Input file: /data/retarget/locomotion/raw/AMASS_SMPLXG/Eyes_Japan_Dataset/kaiwa/gesture_etc-47-big_drum-kaiwa_stageii.npz
Output file: ../robot/ik_based/pkl/008567.pkl
Status: SKIPPED (ALREADY EXISTS)
==================================================

=== SKIPPED (ALREADY EXISTS) - 2025-10-14 21:40:43 ===
File index: 008568
Input file: /data/retarget/locomotion/raw/AMASS_SMPLXG/Eyes_Japan_Dataset/kaiwa/gesture_etc-48-medium_drum-kaiwa_stageii.npz
Output file: ../robot/ik_based/pkl/008568.pkl
Status: SKIPPED (ALREADY EXISTS)
==================================================

=== SKIPPED (ALREADY EXISTS) - 2025-10-14 21:40:43 ===
File index: 008569
Input file: /data/retarget/locomotion/raw/AMASS_SMPLXG/Eyes_Japan_Dataset/kaiwa/gesture_etc-49-taiko_under-kaiwa_stageii.npz
Output file: ../robot/ik_based/pkl/008569.pkl
Status: SKIPPED (ALREADY EXISTS)
==================================================

=== SKIPPED (ALREADY EXISTS) - 2025-10-14 21:40:43 ===
File index: 008570
Input file: /data/retarget/locomotion/raw/AMASS_SMPLXG/Eyes_Japan_Dataset/kaiwa/greeting-01-hello-kaiwa_stageii.npz
Output file: ../robot/ik_based/pkl/008570.pkl
Status: SKIPPED (ALREADY EXISTS)
==================================================

=== SKIPPED (ALREADY EXISTS) - 2025-10-14 21:40:43 ===
File index: 008571
Input file: /data/retarget/locomotion/raw/AMASS_SMPLXG/Eyes_Japan_Dataset/kaiwa/greeting-02-bye-kaiwa_stageii.npz
Output file: ../robot/ik_based/pkl/008571.pkl
Status: SKIPPED (ALREADY EXISTS)
==================================================

=== SKIPPED (ALREADY EXISTS) - 2025-10-14 21:40:43 ===
File index: 008572
Input file: /data/retarget/locomotion/raw/AMASS_SMPLXG/Eyes_Japan_Dataset/kaiwa/greeting-03-election-kaiwa_stageii.npz
Output file: ../robot/ik_based/pkl/008572.pkl
Status: SKIPPED (ALREADY EXISTS)
==================================================

=== SKIPPED (ALREADY EXISTS) - 2025-10-14 21:40:43 ===
File index: 008573
Input file: /data/retarget/locomotion/raw/AMASS_SMPLXG/Eyes_Japan_Dataset/kaiwa/greeting-04-salute_(head)-kaiwa_stageii.npz
Output file: ../robot/ik_based/pkl/008573.pkl
Status: SKIPPED (ALREADY EXISTS)
==================================================

=== SKIPPED (ALREADY EXISTS) - 2025-10-14 21:40:43 ===
File index: 008574
Input file: /data/retarget/locomotion/raw/AMASS_SMPLXG/Eyes_Japan_Dataset/kaiwa/greeting-05-salute_(chest)-kaiwa_stageii.npz
Output file: ../robot/ik_based/pkl/008574.pkl
Status: SKIPPED (ALREADY EXISTS)
==================================================

=== SKIPPED (ALREADY EXISTS) - 2025-10-14 21:40:43 ===
File index: 008575
Input file: /data/retarget/locomotion/raw/AMASS_SMPLXG/Eyes_Japan_Dataset/kaiwa/greeting-07-bow-kaiwa_stageii.npz
Output file: ../robot/ik_based/pkl/008575.pkl
Status: SKIPPED (ALREADY EXISTS)
==================================================

=== SKIPPED (ALREADY EXISTS) - 2025-10-14 21:40:43 ===
File index: 008576
Input file: /data/retarget/locomotion/raw/AMASS_SMPLXG/Eyes_Japan_Dataset/kaiwa/greeting-08-shakehands-kaiwa_stageii.npz
Output file: ../robot/ik_based/pkl/008576.pkl
Status: SKIPPED (ALREADY EXISTS)
==================================================

=== SKIPPED (ALREADY EXISTS) - 2025-10-14 21:40:43 ===
File index: 008577
Input file: /data/retarget/locomotion/raw/AMASS_SMPLXG/Eyes_Japan_Dataset/kaiwa/greeting-09-certificate-kaiwa_stageii.npz
Output file: ../robot/ik_based/pkl/008577.pkl
Status: SKIPPED (ALREADY EXISTS)
==================================================

=== SKIPPED (ALREADY EXISTS) - 2025-10-14 21:40:43 ===
File index: 008578
Input file: /data/retarget/locomotion/raw/AMASS_SMPLXG/Eyes_Japan_Dataset/kaiwa/jump-01-normal-kaiwa_stageii.npz
Output file: ../robot/ik_based/pkl/008578.pkl
Status: SKIPPED (ALREADY EXISTS)
==================================================

=== SKIPPED (ALREADY EXISTS) - 2025-10-14 21:40:43 ===
File index: 008579
Input file: /data/retarget/locomotion/raw/AMASS_SMPLXG/Eyes_Japan_Dataset/kaiwa/jump-02-leap-kaiwa_stageii.npz
Output file: ../robot/ik_based/pkl/008579.pkl
Status: SKIPPED (ALREADY EXISTS)
==================================================

=== SKIPPED (ALREADY EXISTS) - 2025-10-14 21:40:43 ===
File index: 008580
Input file: /data/retarget/locomotion/raw/AMASS_SMPLXG/Eyes_Japan_Dataset/kaiwa/jump-03-vertical-kaiwa_stageii.npz
Output file: ../robot/ik_based/pkl/008580.pkl
Status: SKIPPED (ALREADY EXISTS)
==================================================

=== SKIPPED (ALREADY EXISTS) - 2025-10-14 21:40:43 ===
File index: 008581
Input file: /data/retarget/locomotion/raw/AMASS_SMPLXG/Eyes_Japan_Dataset/kaiwa/jump-04-horizontal-kaiwa_stageii.npz
Output file: ../robot/ik_based/pkl/008581.pkl
Status: SKIPPED (ALREADY EXISTS)
==================================================

=== SKIPPED (ALREADY EXISTS) - 2025-10-14 21:40:43 ===
File index: 008582
Input file: /data/retarget/locomotion/raw/AMASS_SMPLXG/Eyes_Japan_Dataset/kaiwa/jump-11-warmup-kaiwa_stageii.npz
Output file: ../robot/ik_based/pkl/008582.pkl
Status: SKIPPED (ALREADY EXISTS)
==================================================

=== SKIPPED (ALREADY EXISTS) - 2025-10-14 21:40:43 ===
File index: 008583
Input file: /data/retarget/locomotion/raw/AMASS_SMPLXG/Eyes_Japan_Dataset/kaiwa/jump-13-matrix-kaiwa_stageii.npz
Output file: ../robot/ik_based/pkl/008583.pkl
Status: SKIPPED (ALREADY EXISTS)
==================================================

=== SKIPPED (ALREADY EXISTS) - 2025-10-14 21:40:43 ===
File index: 008584
Input file: /data/retarget/locomotion/raw/AMASS_SMPLXG/Eyes_Japan_Dataset/kaiwa/pain-01-headache-kaiwa_stageii.npz
Output file: ../robot/ik_based/pkl/008584.pkl
Status: SKIPPED (ALREADY EXISTS)
==================================================

=== SKIPPED (ALREADY EXISTS) - 2025-10-14 21:40:43 ===
File index: 008585
Input file: /data/retarget/locomotion/raw/AMASS_SMPLXG/Eyes_Japan_Dataset/kaiwa/pain-03-toothache-kaiwa_stageii.npz
Output file: ../robot/ik_based/pkl/008585.pkl
Status: SKIPPED (ALREADY EXISTS)
==================================================

=== SKIPPED (ALREADY EXISTS) - 2025-10-14 21:40:43 ===
File index: 008586
Input file: /data/retarget/locomotion/raw/AMASS_SMPLXG/Eyes_Japan_Dataset/kaiwa/pain-07-arthritic-kaiwa_stageii.npz
Output file: ../robot/ik_based/pkl/008586.pkl
Status: SKIPPED (ALREADY EXISTS)
==================================================

=== SKIPPED (ALREADY EXISTS) - 2025-10-14 21:40:43 ===
File index: 008587
Input file: /data/retarget/locomotion/raw/AMASS_SMPLXG/Eyes_Japan_Dataset/kaiwa/pose-01-normal-kaiwa_stageii.npz
Output file: ../robot/ik_based/pkl/008587.pkl
Status: SKIPPED (ALREADY EXISTS)
==================================================

=== SKIPPED (ALREADY EXISTS) - 2025-10-14 21:40:43 ===
File index: 008588
Input file: /data/retarget/locomotion/raw/AMASS_SMPLXG/Eyes_Japan_Dataset/kaiwa/pose-02-rest-kaiwa_stageii.npz
Output file: ../robot/ik_based/pkl/008588.pkl
Status: SKIPPED (ALREADY EXISTS)
==================================================

=== SKIPPED (ALREADY EXISTS) - 2025-10-14 21:40:43 ===
File index: 008589
Input file: /data/retarget/locomotion/raw/AMASS_SMPLXG/Eyes_Japan_Dataset/kaiwa/pose-03-open_leg-kaiwa_stageii.npz
Output file: ../robot/ik_based/pkl/008589.pkl
Status: SKIPPED (ALREADY EXISTS)
==================================================

=== SKIPPED (ALREADY EXISTS) - 2025-10-14 21:40:43 ===
File index: 008590
Input file: /data/retarget/locomotion/raw/AMASS_SMPLXG/Eyes_Japan_Dataset/kaiwa/pose-04-drank-kaiwa_stageii.npz
Output file: ../robot/ik_based/pkl/008590.pkl
Status: SKIPPED (ALREADY EXISTS)
==================================================

=== SKIPPED (ALREADY EXISTS) - 2025-10-14 21:40:43 ===
File index: 008591
Input file: /data/retarget/locomotion/raw/AMASS_SMPLXG/Eyes_Japan_Dataset/kaiwa/pose-05-cross_leg-kaiwa_stageii.npz
Output file: ../robot/ik_based/pkl/008591.pkl
Status: SKIPPED (ALREADY EXISTS)
==================================================

=== SKIPPED (ALREADY EXISTS) - 2025-10-14 21:40:43 ===
File index: 008592
Input file: /data/retarget/locomotion/raw/AMASS_SMPLXG/Eyes_Japan_Dataset/kaiwa/pose-06-hangon-kaiwa_stageii.npz
Output file: ../robot/ik_based/pkl/008592.pkl
Status: SKIPPED (ALREADY EXISTS)
==================================================

=== SKIPPED (ALREADY EXISTS) - 2025-10-14 21:40:43 ===
File index: 008593
Input file: /data/retarget/locomotion/raw/AMASS_SMPLXG/Eyes_Japan_Dataset/kaiwa/pose-08-pray_buddhismintone-kaiwa_stageii.npz
Output file: ../robot/ik_based/pkl/008593.pkl
Status: SKIPPED (ALREADY EXISTS)
==================================================

=== SKIPPED (ALREADY EXISTS) - 2025-10-14 21:40:43 ===
File index: 008594
Input file: /data/retarget/locomotion/raw/AMASS_SMPLXG/Eyes_Japan_Dataset/kaiwa/pose-09-pray_buddhism-kaiwa_stageii.npz
Output file: ../robot/ik_based/pkl/008594.pkl
Status: SKIPPED (ALREADY EXISTS)
==================================================

=== SKIPPED (ALREADY EXISTS) - 2025-10-14 21:40:43 ===
File index: 008595
Input file: /data/retarget/locomotion/raw/AMASS_SMPLXG/Eyes_Japan_Dataset/kaiwa/pose-10-recall_blackmagic-kaiwa_stageii.npz
Output file: ../robot/ik_based/pkl/008595.pkl
Status: SKIPPED (ALREADY EXISTS)
==================================================

=== SKIPPED (ALREADY EXISTS) - 2025-10-14 21:40:43 ===
File index: 008596
Input file: /data/retarget/locomotion/raw/AMASS_SMPLXG/Eyes_Japan_Dataset/kaiwa/pose-11-bended_knees-kaiwa_stageii.npz
Output file: ../robot/ik_based/pkl/008596.pkl
Status: SKIPPED (ALREADY EXISTS)
==================================================

=== SKIPPED (ALREADY EXISTS) - 2025-10-14 21:40:43 ===
File index: 008597
Input file: /data/retarget/locomotion/raw/AMASS_SMPLXG/Eyes_Japan_Dataset/kaiwa/pose-12-body_building-kaiwa_stageii.npz
Output file: ../robot/ik_based/pkl/008597.pkl
Status: SKIPPED (ALREADY EXISTS)
==================================================

=== SKIPPED (ALREADY EXISTS) - 2025-10-14 21:40:43 ===
File index: 008598
Input file: /data/retarget/locomotion/raw/AMASS_SMPLXG/Eyes_Japan_Dataset/kaiwa/pose-13-model-kaiwa_stageii.npz
Output file: ../robot/ik_based/pkl/008598.pkl
Status: SKIPPED (ALREADY EXISTS)
==================================================

=== SKIPPED (ALREADY EXISTS) - 2025-10-14 21:40:43 ===
File index: 008599
Input file: /data/retarget/locomotion/raw/AMASS_SMPLXG/Eyes_Japan_Dataset/kaiwa/pose-14-look_up-kaiwa_stageii.npz
Output file: ../robot/ik_based/pkl/008599.pkl
Status: SKIPPED (ALREADY EXISTS)
==================================================

=== SKIPPED (ALREADY EXISTS) - 2025-10-14 21:40:43 ===
File index: 008600
Input file: /data/retarget/locomotion/raw/AMASS_SMPLXG/Eyes_Japan_Dataset/kaiwa/pose-15-look_down-kaiwa_stageii.npz
Output file: ../robot/ik_based/pkl/008600.pkl
Status: SKIPPED (ALREADY EXISTS)
==================================================

=== SKIPPED (ALREADY EXISTS) - 2025-10-14 21:40:43 ===
File index: 008601
Input file: /data/retarget/locomotion/raw/AMASS_SMPLXG/Eyes_Japan_Dataset/kaiwa/pose-17-one_leg-kaiwa_stageii.npz
Output file: ../robot/ik_based/pkl/008601.pkl
Status: SKIPPED (ALREADY EXISTS)
==================================================

=== SKIPPED (ALREADY EXISTS) - 2025-10-14 21:40:43 ===
File index: 008602
Input file: /data/retarget/locomotion/raw/AMASS_SMPLXG/Eyes_Japan_Dataset/kaiwa/pose-18-applause-kaiwa_stageii.npz
Output file: ../robot/ik_based/pkl/008602.pkl
Status: SKIPPED (ALREADY EXISTS)
==================================================

=== SKIPPED (ALREADY EXISTS) - 2025-10-14 21:40:43 ===
File index: 008603
Input file: /data/retarget/locomotion/raw/AMASS_SMPLXG/Eyes_Japan_Dataset/kaiwa/pose-20-zombee-kaiwa_stageii.npz
Output file: ../robot/ik_based/pkl/008603.pkl
Status: SKIPPED (ALREADY EXISTS)
==================================================

=== SKIPPED (ALREADY EXISTS) - 2025-10-14 21:40:43 ===
File index: 008604
Input file: /data/retarget/locomotion/raw/AMASS_SMPLXG/Eyes_Japan_Dataset/kaiwa/sitdown_standup-03-chair_back-kaiwa_stageii.npz
Output file: ../robot/ik_based/pkl/008604.pkl
Status: SKIPPED (ALREADY EXISTS)
==================================================

=== SKIPPED (ALREADY EXISTS) - 2025-10-14 21:40:43 ===
File index: 008605
Input file: /data/retarget/locomotion/raw/AMASS_SMPLXG/Eyes_Japan_Dataset/kaiwa/sitdown_standup-09-squat_down-kaiwa_stageii.npz
Output file: ../robot/ik_based/pkl/008605.pkl
Status: SKIPPED (ALREADY EXISTS)
==================================================

=== SKIPPED (ALREADY EXISTS) - 2025-10-14 21:40:43 ===
File index: 008606
Input file: /data/retarget/locomotion/raw/AMASS_SMPLXG/Eyes_Japan_Dataset/kaiwa/tennis-02-forehand_lob-kaiwa_stageii.npz
Output file: ../robot/ik_based/pkl/008606.pkl
Status: SKIPPED (ALREADY EXISTS)
==================================================

=== SKIPPED (ALREADY EXISTS) - 2025-10-14 21:40:43 ===
File index: 008607
Input file: /data/retarget/locomotion/raw/AMASS_SMPLXG/Eyes_Japan_Dataset/kaiwa/tennis-06-forehand_smash-kaiwa_stageii.npz
Output file: ../robot/ik_based/pkl/008607.pkl
Status: SKIPPED (ALREADY EXISTS)
==================================================

=== SKIPPED (ALREADY EXISTS) - 2025-10-14 21:40:43 ===
File index: 008608
Input file: /data/retarget/locomotion/raw/AMASS_SMPLXG/Eyes_Japan_Dataset/kaiwa/tennis-18-catch_netball-kaiwa_stageii.npz
Output file: ../robot/ik_based/pkl/008608.pkl
Status: SKIPPED (ALREADY EXISTS)
==================================================

=== SKIPPED (ALREADY EXISTS) - 2025-10-14 21:40:43 ===
File index: 008609
Input file: /data/retarget/locomotion/raw/AMASS_SMPLXG/Eyes_Japan_Dataset/kaiwa/tennis-19-catch_overhead-kaiwa_stageii.npz
Output file: ../robot/ik_based/pkl/008609.pkl
Status: SKIPPED (ALREADY EXISTS)
==================================================

=== SKIPPED (ALREADY EXISTS) - 2025-10-14 21:40:43 ===
File index: 008610
Input file: /data/retarget/locomotion/raw/AMASS_SMPLXG/Eyes_Japan_Dataset/kaiwa/throw_toss-09-shotput-kaiwa_stageii.npz
Output file: ../robot/ik_based/pkl/008610.pkl
Status: SKIPPED (ALREADY EXISTS)
==================================================

=== SKIPPED (ALREADY EXISTS) - 2025-10-14 21:40:43 ===
File index: 008611
Input file: /data/retarget/locomotion/raw/AMASS_SMPLXG/Eyes_Japan_Dataset/kaiwa/throw_toss-12-dart-kaiwa_stageii.npz
Output file: ../robot/ik_based/pkl/008611.pkl
Status: SKIPPED (ALREADY EXISTS)
==================================================

=== SKIPPED (ALREADY EXISTS) - 2025-10-14 21:40:43 ===
File index: 008612
Input file: /data/retarget/locomotion/raw/AMASS_SMPLXG/Eyes_Japan_Dataset/kaiwa/throw_toss-13-pass_to_right_light-kaiwa_stageii.npz
Output file: ../robot/ik_based/pkl/008612.pkl
Status: SKIPPED (ALREADY EXISTS)
==================================================

=== SKIPPED (ALREADY EXISTS) - 2025-10-14 21:40:43 ===
File index: 008613
Input file: /data/retarget/locomotion/raw/AMASS_SMPLXG/Eyes_Japan_Dataset/kaiwa/throw_toss-14-pass_to_right_heavy-kaiwa_stageii.npz
Output file: ../robot/ik_based/pkl/008613.pkl
Status: SKIPPED (ALREADY EXISTS)
==================================================

=== SKIPPED (ALREADY EXISTS) - 2025-10-14 21:40:43 ===
File index: 008614
Input file: /data/retarget/locomotion/raw/AMASS_SMPLXG/Eyes_Japan_Dataset/kaiwa/throw_toss-17-pass_to_back_light-kaiwa_stageii.npz
Output file: ../robot/ik_based/pkl/008614.pkl
Status: SKIPPED (ALREADY EXISTS)
==================================================

=== SKIPPED (ALREADY EXISTS) - 2025-10-14 21:40:43 ===
File index: 008615
Input file: /data/retarget/locomotion/raw/AMASS_SMPLXG/Eyes_Japan_Dataset/kaiwa/throw_toss-18-pass_to_back_heavy-kaiwa_stageii.npz
Output file: ../robot/ik_based/pkl/008615.pkl
Status: SKIPPED (ALREADY EXISTS)
==================================================

=== SKIPPED (ALREADY EXISTS) - 2025-10-14 21:40:43 ===
File index: 008616
Input file: /data/retarget/locomotion/raw/AMASS_SMPLXG/Eyes_Japan_Dataset/kaiwa/throw_toss-19-pass_to_front_light-kaiwa_stageii.npz
Output file: ../robot/ik_based/pkl/008616.pkl
Status: SKIPPED (ALREADY EXISTS)
==================================================

=== SKIPPED (ALREADY EXISTS) - 2025-10-14 21:40:43 ===
File index: 008617
Input file: /data/retarget/locomotion/raw/AMASS_SMPLXG/Eyes_Japan_Dataset/kaiwa/throw_toss-20-pass_to_front_heavy-kaiwa_stageii.npz
Output file: ../robot/ik_based/pkl/008617.pkl
Status: SKIPPED (ALREADY EXISTS)
==================================================

=== SKIPPED (ALREADY EXISTS) - 2025-10-14 21:40:43 ===
File index: 008618
Input file: /data/retarget/locomotion/raw/AMASS_SMPLXG/Eyes_Japan_Dataset/kaiwa/turn-01-call-kaiwa_stageii.npz
Output file: ../robot/ik_based/pkl/008618.pkl
Status: SKIPPED (ALREADY EXISTS)
==================================================

=== SKIPPED (ALREADY EXISTS) - 2025-10-14 21:40:43 ===
File index: 008619
Input file: /data/retarget/locomotion/raw/AMASS_SMPLXG/Eyes_Japan_Dataset/kaiwa/turn-02-look_around-kaiwa_stageii.npz
Output file: ../robot/ik_based/pkl/008619.pkl
Status: SKIPPED (ALREADY EXISTS)
==================================================

=== SKIPPED (ALREADY EXISTS) - 2025-10-14 21:40:43 ===
File index: 008620
Input file: /data/retarget/locomotion/raw/AMASS_SMPLXG/Eyes_Japan_Dataset/kaiwa/turn-03-look_at-kaiwa_stageii.npz
Output file: ../robot/ik_based/pkl/008620.pkl
Status: SKIPPED (ALREADY EXISTS)
==================================================

=== SKIPPED (ALREADY EXISTS) - 2025-10-14 21:40:43 ===
File index: 008621
Input file: /data/retarget/locomotion/raw/AMASS_SMPLXG/Eyes_Japan_Dataset/kaiwa/turn-05-turn-kaiwa_stageii.npz
Output file: ../robot/ik_based/pkl/008621.pkl
Status: SKIPPED (ALREADY EXISTS)
==================================================

=== SKIPPED (ALREADY EXISTS) - 2025-10-14 21:40:43 ===
File index: 008622
Input file: /data/retarget/locomotion/raw/AMASS_SMPLXG/Eyes_Japan_Dataset/kaiwa/walk-16-push_by_hand-kaiwa_stageii.npz
Output file: ../robot/ik_based/pkl/008622.pkl
Status: SKIPPED (ALREADY EXISTS)
==================================================

=== SKIPPED (ALREADY EXISTS) - 2025-10-14 21:40:43 ===
File index: 008623
Input file: /data/retarget/locomotion/raw/AMASS_SMPLXG/Eyes_Japan_Dataset/kaiwa/walk-24-listless-kaiwa_stageii.npz
Output file: ../robot/ik_based/pkl/008623.pkl
Status: SKIPPED (ALREADY EXISTS)
==================================================

=== SKIPPED (ALREADY EXISTS) - 2025-10-14 21:40:43 ===
File index: 008624
Input file: /data/retarget/locomotion/raw/AMASS_SMPLXG/Eyes_Japan_Dataset/kaiwa/walk-26-exhausted-kaiwa_stageii.npz
Output file: ../robot/ik_based/pkl/008624.pkl
Status: SKIPPED (ALREADY EXISTS)
==================================================

=== SKIPPED (ALREADY EXISTS) - 2025-10-14 21:40:43 ===
File index: 008625
Input file: /data/retarget/locomotion/raw/AMASS_SMPLXG/Eyes_Japan_Dataset/kaiwa/walk-27-thinking-kaiwa_stageii.npz
Output file: ../robot/ik_based/pkl/008625.pkl
Status: SKIPPED (ALREADY EXISTS)
==================================================

=== SKIPPED (ALREADY EXISTS) - 2025-10-14 21:40:43 ===
File index: 008626
Input file: /data/retarget/locomotion/raw/AMASS_SMPLXG/Eyes_Japan_Dataset/kaiwa/walk-29-look_down-kaiwa_stageii.npz
Output file: ../robot/ik_based/pkl/008626.pkl
Status: SKIPPED (ALREADY EXISTS)
==================================================

=== SKIPPED (ALREADY EXISTS) - 2025-10-14 21:40:43 ===
File index: 008627
Input file: /data/retarget/locomotion/raw/AMASS_SMPLXG/Eyes_Japan_Dataset/kanno/accident-01-dodge-kanno_stageii.npz
Output file: ../robot/ik_based/pkl/008627.pkl
Status: SKIPPED (ALREADY EXISTS)
==================================================

=== SKIPPED (ALREADY EXISTS) - 2025-10-14 21:40:43 ===
File index: 008628
Input file: /data/retarget/locomotion/raw/AMASS_SMPLXG/Eyes_Japan_Dataset/kanno/accident-02-dodge_fast-kanno_stageii.npz
Output file: ../robot/ik_based/pkl/008628.pkl
Status: SKIPPED (ALREADY EXISTS)
==================================================

=== SKIPPED (ALREADY EXISTS) - 2025-10-14 21:40:43 ===
File index: 008629
Input file: /data/retarget/locomotion/raw/AMASS_SMPLXG/Eyes_Japan_Dataset/kanno/accident-03-damage_head-kanno_stageii.npz
Output file: ../robot/ik_based/pkl/008629.pkl
Status: SKIPPED (ALREADY EXISTS)
==================================================

=== SKIPPED (ALREADY EXISTS) - 2025-10-14 21:40:43 ===
File index: 008630
Input file: /data/retarget/locomotion/raw/AMASS_SMPLXG/Eyes_Japan_Dataset/kanno/accident-04-damage_right_leg-kanno_stageii.npz
Output file: ../robot/ik_based/pkl/008630.pkl
Status: SKIPPED (ALREADY EXISTS)
==================================================

=== SKIPPED (ALREADY EXISTS) - 2025-10-14 21:40:43 ===
File index: 008631
Input file: /data/retarget/locomotion/raw/AMASS_SMPLXG/Eyes_Japan_Dataset/kanno/accident-05-damage_right_arm-kanno_stageii.npz
Output file: ../robot/ik_based/pkl/008631.pkl
Status: SKIPPED (ALREADY EXISTS)
==================================================

=== SKIPPED (ALREADY EXISTS) - 2025-10-14 21:40:43 ===
File index: 008632
Input file: /data/retarget/locomotion/raw/AMASS_SMPLXG/Eyes_Japan_Dataset/kanno/accident-06-damage_left_leg-kanno_stageii.npz
Output file: ../robot/ik_based/pkl/008632.pkl
Status: SKIPPED (ALREADY EXISTS)
==================================================

=== SKIPPED (ALREADY EXISTS) - 2025-10-14 21:40:43 ===
File index: 008633
Input file: /data/retarget/locomotion/raw/AMASS_SMPLXG/Eyes_Japan_Dataset/kanno/accident-07-damage_left_arm-kanno_stageii.npz
Output file: ../robot/ik_based/pkl/008633.pkl
Status: SKIPPED (ALREADY EXISTS)
==================================================

=== SKIPPED (ALREADY EXISTS) - 2025-10-14 21:40:43 ===
File index: 008634
Input file: /data/retarget/locomotion/raw/AMASS_SMPLXG/Eyes_Japan_Dataset/kanno/accident-08-damage_rightfoot-kanno_stageii.npz
Output file: ../robot/ik_based/pkl/008634.pkl
Status: SKIPPED (ALREADY EXISTS)
==================================================

=== SKIPPED (ALREADY EXISTS) - 2025-10-14 21:40:43 ===
File index: 008635
Input file: /data/retarget/locomotion/raw/AMASS_SMPLXG/Eyes_Japan_Dataset/kanno/accident-10-spasm-kanno_stageii.npz
Output file: ../robot/ik_based/pkl/008635.pkl
Status: SKIPPED (ALREADY EXISTS)
==================================================

=== SKIPPED (ALREADY EXISTS) - 2025-10-14 21:40:43 ===
File index: 008636
Input file: /data/retarget/locomotion/raw/AMASS_SMPLXG/Eyes_Japan_Dataset/kanno/accident-11-fall_down-kanno_stageii.npz
Output file: ../robot/ik_based/pkl/008636.pkl
Status: SKIPPED (ALREADY EXISTS)
==================================================

=== SKIPPED (ALREADY EXISTS) - 2025-10-14 21:40:43 ===
File index: 008637
Input file: /data/retarget/locomotion/raw/AMASS_SMPLXG/Eyes_Japan_Dataset/kanno/accident-12-twist_foot-kanno_stageii.npz
Output file: ../robot/ik_based/pkl/008637.pkl
Status: SKIPPED (ALREADY EXISTS)
==================================================

=== SKIPPED (ALREADY EXISTS) - 2025-10-14 21:40:43 ===
File index: 008638
Input file: /data/retarget/locomotion/raw/AMASS_SMPLXG/Eyes_Japan_Dataset/kanno/accident-13-damage_back-kanno_stageii.npz
Output file: ../robot/ik_based/pkl/008638.pkl
Status: SKIPPED (ALREADY EXISTS)
==================================================

=== SKIPPED (ALREADY EXISTS) - 2025-10-14 21:40:43 ===
File index: 008639
Input file: /data/retarget/locomotion/raw/AMASS_SMPLXG/Eyes_Japan_Dataset/kanno/accident-14-dodge_turn_down-kanno_stageii.npz
Output file: ../robot/ik_based/pkl/008639.pkl
Status: SKIPPED (ALREADY EXISTS)
==================================================

=== SKIPPED (ALREADY EXISTS) - 2025-10-14 21:40:43 ===
File index: 008640
Input file: /data/retarget/locomotion/raw/AMASS_SMPLXG/Eyes_Japan_Dataset/kanno/accident-15-knock_head_2-kanno_stageii.npz
Output file: ../robot/ik_based/pkl/008640.pkl
Status: SKIPPED (ALREADY EXISTS)
==================================================

=== SKIPPED (ALREADY EXISTS) - 2025-10-14 21:40:43 ===
File index: 008641
Input file: /data/retarget/locomotion/raw/AMASS_SMPLXG/Eyes_Japan_Dataset/kanno/gesture_etc-36-shame-kanno_stageii.npz
Output file: ../robot/ik_based/pkl/008641.pkl
Status: SKIPPED (ALREADY EXISTS)
==================================================

=== SKIPPED (ALREADY EXISTS) - 2025-10-14 21:40:43 ===
File index: 008642
Input file: /data/retarget/locomotion/raw/AMASS_SMPLXG/Eyes_Japan_Dataset/kanno/gesture_etc-40-head_banging-kanno_stageii.npz
Output file: ../robot/ik_based/pkl/008642.pkl
Status: SKIPPED (ALREADY EXISTS)
==================================================

=== SKIPPED (ALREADY EXISTS) - 2025-10-14 21:40:43 ===
File index: 008643
Input file: /data/retarget/locomotion/raw/AMASS_SMPLXG/Eyes_Japan_Dataset/kanno/gesture_etc-41-mosh-kanno_stageii.npz
Output file: ../robot/ik_based/pkl/008643.pkl
Status: SKIPPED (ALREADY EXISTS)
==================================================

=== SKIPPED (ALREADY EXISTS) - 2025-10-14 21:40:43 ===
File index: 008644
Input file: /data/retarget/locomotion/raw/AMASS_SMPLXG/Eyes_Japan_Dataset/kanno/gesture_etc-43-brush_teeth-kanno_stageii.npz
Output file: ../robot/ik_based/pkl/008644.pkl
Status: SKIPPED (ALREADY EXISTS)
==================================================

=== SKIPPED (ALREADY EXISTS) - 2025-10-14 21:40:43 ===
File index: 008645
Input file: /data/retarget/locomotion/raw/AMASS_SMPLXG/Eyes_Japan_Dataset/kanno/gesture_etc-45-feel_dizzy_-kanno_stageii.npz
Output file: ../robot/ik_based/pkl/008645.pkl
Status: SKIPPED (ALREADY EXISTS)
==================================================

=== SKIPPED (ALREADY EXISTS) - 2025-10-14 21:40:43 ===
File index: 008646
Input file: /data/retarget/locomotion/raw/AMASS_SMPLXG/Eyes_Japan_Dataset/kanno/gesture_etc-46-vomit_of_blood-kanno_stageii.npz
Output file: ../robot/ik_based/pkl/008646.pkl
Status: SKIPPED (ALREADY EXISTS)
==================================================

=== SKIPPED (ALREADY EXISTS) - 2025-10-14 21:40:43 ===
File index: 008647
Input file: /data/retarget/locomotion/raw/AMASS_SMPLXG/Eyes_Japan_Dataset/kanno/gesture_etc-50-syuriken-kanno_stageii.npz
Output file: ../robot/ik_based/pkl/008647.pkl
Status: SKIPPED (ALREADY EXISTS)
==================================================

=== SKIPPED (ALREADY EXISTS) - 2025-10-14 21:40:43 ===
File index: 008648
Input file: /data/retarget/locomotion/raw/AMASS_SMPLXG/Eyes_Japan_Dataset/kanno/greeting-01-hello-kanno_stageii.npz
Output file: ../robot/ik_based/pkl/008648.pkl
Status: SKIPPED (ALREADY EXISTS)
==================================================

=== SKIPPED (ALREADY EXISTS) - 2025-10-14 21:40:43 ===
File index: 008649
Input file: /data/retarget/locomotion/raw/AMASS_SMPLXG/Eyes_Japan_Dataset/kanno/greeting-02-bye-kanno_stageii.npz
Output file: ../robot/ik_based/pkl/008649.pkl
Status: SKIPPED (ALREADY EXISTS)
==================================================

=== SKIPPED (ALREADY EXISTS) - 2025-10-14 21:40:43 ===
File index: 008650
Input file: /data/retarget/locomotion/raw/AMASS_SMPLXG/Eyes_Japan_Dataset/kanno/greeting-03-election-kanno_stageii.npz
Output file: ../robot/ik_based/pkl/008650.pkl
Status: SKIPPED (ALREADY EXISTS)
==================================================

=== SKIPPED (ALREADY EXISTS) - 2025-10-14 21:40:43 ===
File index: 008651
Input file: /data/retarget/locomotion/raw/AMASS_SMPLXG/Eyes_Japan_Dataset/kanno/greeting-05-salute_(chest)-kanno_stageii.npz
Output file: ../robot/ik_based/pkl/008651.pkl
Status: SKIPPED (ALREADY EXISTS)
==================================================

=== SKIPPED (ALREADY EXISTS) - 2025-10-14 21:40:43 ===
File index: 008652
Input file: /data/retarget/locomotion/raw/AMASS_SMPLXG/Eyes_Japan_Dataset/kanno/greeting-07-bow-kanno_stageii.npz
Output file: ../robot/ik_based/pkl/008652.pkl
Status: SKIPPED (ALREADY EXISTS)
==================================================

=== SKIPPED (ALREADY EXISTS) - 2025-10-14 21:40:43 ===
File index: 008653
Input file: /data/retarget/locomotion/raw/AMASS_SMPLXG/Eyes_Japan_Dataset/kanno/greeting-08-shakehands-kanno_stageii.npz
Output file: ../robot/ik_based/pkl/008653.pkl
Status: SKIPPED (ALREADY EXISTS)
==================================================

=== SKIPPED (ALREADY EXISTS) - 2025-10-14 21:40:43 ===
File index: 008654
Input file: /data/retarget/locomotion/raw/AMASS_SMPLXG/Eyes_Japan_Dataset/kanno/greeting-09-certificate-kanno_stageii.npz
Output file: ../robot/ik_based/pkl/008654.pkl
Status: SKIPPED (ALREADY EXISTS)
==================================================

=== SKIPPED (ALREADY EXISTS) - 2025-10-14 21:40:43 ===
File index: 008655
Input file: /data/retarget/locomotion/raw/AMASS_SMPLXG/Eyes_Japan_Dataset/kanno/jump-07-rope_double-kanno_stageii.npz
Output file: ../robot/ik_based/pkl/008655.pkl
Status: SKIPPED (ALREADY EXISTS)
==================================================

=== SKIPPED (ALREADY EXISTS) - 2025-10-14 21:40:43 ===
File index: 008656
Input file: /data/retarget/locomotion/raw/AMASS_SMPLXG/Eyes_Japan_Dataset/kanno/jump-08-rope_backward-kanno_stageii.npz
Output file: ../robot/ik_based/pkl/008656.pkl
Status: SKIPPED (ALREADY EXISTS)
==================================================

=== SKIPPED (ALREADY EXISTS) - 2025-10-14 21:40:43 ===
File index: 008657
Input file: /data/retarget/locomotion/raw/AMASS_SMPLXG/Eyes_Japan_Dataset/kanno/jump-09-rope_cross-kanno_stageii.npz
Output file: ../robot/ik_based/pkl/008657.pkl
Status: SKIPPED (ALREADY EXISTS)
==================================================

=== SKIPPED (ALREADY EXISTS) - 2025-10-14 21:40:43 ===
File index: 008658
Input file: /data/retarget/locomotion/raw/AMASS_SMPLXG/Eyes_Japan_Dataset/kanno/jump-10-rope_long-kanno_stageii.npz
Output file: ../robot/ik_based/pkl/008658.pkl
Status: SKIPPED (ALREADY EXISTS)
==================================================

=== SKIPPED (ALREADY EXISTS) - 2025-10-14 21:40:43 ===
File index: 008659
Input file: /data/retarget/locomotion/raw/AMASS_SMPLXG/Eyes_Japan_Dataset/kanno/jump-12-boxer_step-kanno_stageii.npz
Output file: ../robot/ik_based/pkl/008659.pkl
Status: SKIPPED (ALREADY EXISTS)
==================================================

=== SKIPPED (ALREADY EXISTS) - 2025-10-14 21:40:43 ===
File index: 008660
Input file: /data/retarget/locomotion/raw/AMASS_SMPLXG/Eyes_Japan_Dataset/kanno/jump-13-matrix-kanno_stageii.npz
Output file: ../robot/ik_based/pkl/008660.pkl
Status: SKIPPED (ALREADY EXISTS)
==================================================

=== ERROR LOG - 2025-10-14 21:40:47 ===
Input file: /data/retarget/locomotion/raw/AMASS_SMPLXG/Eyes_Japan_Dataset/kanno/male_stagei.npz
Output file: ../robot/ik_based/pkl/008661.pkl
Robot type: unitree_g1
Processing time: 3.35 seconds
Error message: 'pose_body is not a file in the archive'
Error type: KeyError
==================================================

=== FILE FAILURE - 2025-10-14 21:40:47 ===
File index: 008661
File number: 212/9307
Input file: /data/retarget/locomotion/raw/AMASS_SMPLXG/Eyes_Japan_Dataset/kanno/male_stagei.npz
Output file: ../robot/ik_based/pkl/008661.pkl
Processing time: 3.35 seconds
Total file time: 3.51 seconds
Status: FAILED
==================================================

=== SKIPPED (ALREADY EXISTS) - 2025-10-14 21:40:47 ===
File index: 008662
Input file: /data/retarget/locomotion/raw/AMASS_SMPLXG/Eyes_Japan_Dataset/kanno/pose-05-cross_leg-kanno_stageii.npz
Output file: ../robot/ik_based/pkl/008662.pkl
Status: SKIPPED (ALREADY EXISTS)
==================================================

=== SKIPPED (ALREADY EXISTS) - 2025-10-14 21:40:47 ===
File index: 008663
Input file: /data/retarget/locomotion/raw/AMASS_SMPLXG/Eyes_Japan_Dataset/kanno/pose-07-pray_cross-kanno_stageii.npz
Output file: ../robot/ik_based/pkl/008663.pkl
Status: SKIPPED (ALREADY EXISTS)
==================================================

=== SKIPPED (ALREADY EXISTS) - 2025-10-14 21:40:47 ===
File index: 008664
Input file: /data/retarget/locomotion/raw/AMASS_SMPLXG/Eyes_Japan_Dataset/kanno/pose-08-pray_buddhismintone-kanno_stageii.npz
Output file: ../robot/ik_based/pkl/008664.pkl
Status: SKIPPED (ALREADY EXISTS)
==================================================

=== SKIPPED (ALREADY EXISTS) - 2025-10-14 21:40:47 ===
File index: 008665
Input file: /data/retarget/locomotion/raw/AMASS_SMPLXG/Eyes_Japan_Dataset/kanno/pose-09-pray_buddhism-kanno_stageii.npz
Output file: ../robot/ik_based/pkl/008665.pkl
Status: SKIPPED (ALREADY EXISTS)
==================================================

=== SKIPPED (ALREADY EXISTS) - 2025-10-14 21:40:47 ===
File index: 008666
Input file: /data/retarget/locomotion/raw/AMASS_SMPLXG/Eyes_Japan_Dataset/kanno/pose-11-bended_knees-kanno_stageii.npz
Output file: ../robot/ik_based/pkl/008666.pkl
Status: SKIPPED (ALREADY EXISTS)
==================================================

=== SKIPPED (ALREADY EXISTS) - 2025-10-14 21:40:47 ===
File index: 008667
Input file: /data/retarget/locomotion/raw/AMASS_SMPLXG/Eyes_Japan_Dataset/kanno/pose-12-body_building-kanno_stageii.npz
Output file: ../robot/ik_based/pkl/008667.pkl
Status: SKIPPED (ALREADY EXISTS)
==================================================

=== SKIPPED (ALREADY EXISTS) - 2025-10-14 21:40:47 ===
File index: 008668
Input file: /data/retarget/locomotion/raw/AMASS_SMPLXG/Eyes_Japan_Dataset/kanno/pose-13-model-kanno_stageii.npz
Output file: ../robot/ik_based/pkl/008668.pkl
Status: SKIPPED (ALREADY EXISTS)
==================================================

=== SKIPPED (ALREADY EXISTS) - 2025-10-14 21:40:47 ===
File index: 008669
Input file: /data/retarget/locomotion/raw/AMASS_SMPLXG/Eyes_Japan_Dataset/kanno/pose-14-look_up-kanno_stageii.npz
Output file: ../robot/ik_based/pkl/008669.pkl
Status: SKIPPED (ALREADY EXISTS)
==================================================

=== SKIPPED (ALREADY EXISTS) - 2025-10-14 21:40:47 ===
File index: 008670
Input file: /data/retarget/locomotion/raw/AMASS_SMPLXG/Eyes_Japan_Dataset/kanno/pose-15-look_down-kanno_stageii.npz
Output file: ../robot/ik_based/pkl/008670.pkl
Status: SKIPPED (ALREADY EXISTS)
==================================================

=== SKIPPED (ALREADY EXISTS) - 2025-10-14 21:40:47 ===
File index: 008671
Input file: /data/retarget/locomotion/raw/AMASS_SMPLXG/Eyes_Japan_Dataset/kanno/pose-16-handstand-kanno_stageii.npz
Output file: ../robot/ik_based/pkl/008671.pkl
Status: SKIPPED (ALREADY EXISTS)
==================================================

=== SKIPPED (ALREADY EXISTS) - 2025-10-14 21:40:47 ===
File index: 008672
Input file: /data/retarget/locomotion/raw/AMASS_SMPLXG/Eyes_Japan_Dataset/kanno/pose-17-one_leg-kanno_stageii.npz
Output file: ../robot/ik_based/pkl/008672.pkl
Status: SKIPPED (ALREADY EXISTS)
==================================================

=== SKIPPED (ALREADY EXISTS) - 2025-10-14 21:40:47 ===
File index: 008673
Input file: /data/retarget/locomotion/raw/AMASS_SMPLXG/Eyes_Japan_Dataset/kanno/pose-19-funny-kanno_stageii.npz
Output file: ../robot/ik_based/pkl/008673.pkl
Status: SKIPPED (ALREADY EXISTS)
==================================================

=== SKIPPED (ALREADY EXISTS) - 2025-10-14 21:40:47 ===
File index: 008674
Input file: /data/retarget/locomotion/raw/AMASS_SMPLXG/Eyes_Japan_Dataset/kanno/pose-20-zombee-kanno_stageii.npz
Output file: ../robot/ik_based/pkl/008674.pkl
Status: SKIPPED (ALREADY EXISTS)
==================================================

=== SKIPPED (ALREADY EXISTS) - 2025-10-14 21:40:47 ===
File index: 008675
Input file: /data/retarget/locomotion/raw/AMASS_SMPLXG/Eyes_Japan_Dataset/kanno/sitdown_standup-01-impolite-kanno_stageii.npz
Output file: ../robot/ik_based/pkl/008675.pkl
Status: SKIPPED (ALREADY EXISTS)
==================================================

=== SKIPPED (ALREADY EXISTS) - 2025-10-14 21:40:47 ===
File index: 008676
Input file: /data/retarget/locomotion/raw/AMASS_SMPLXG/Eyes_Japan_Dataset/kanno/sitdown_standup-03-chair_back-kanno_stageii.npz
Output file: ../robot/ik_based/pkl/008676.pkl
Status: SKIPPED (ALREADY EXISTS)
==================================================

=== SKIPPED (ALREADY EXISTS) - 2025-10-14 21:40:47 ===
File index: 008677
Input file: /data/retarget/locomotion/raw/AMASS_SMPLXG/Eyes_Japan_Dataset/kanno/sitdown_standup-10-observe-kanno_stageii.npz
Output file: ../robot/ik_based/pkl/008677.pkl
Status: SKIPPED (ALREADY EXISTS)
==================================================

=== SKIPPED (ALREADY EXISTS) - 2025-10-14 21:40:47 ===
File index: 008678
Input file: /data/retarget/locomotion/raw/AMASS_SMPLXG/Eyes_Japan_Dataset/kanno/sitdown_standup-11-one_knee_drawn_up-kanno_stageii.npz
Output file: ../robot/ik_based/pkl/008678.pkl
Status: SKIPPED (ALREADY EXISTS)
==================================================

=== SKIPPED (ALREADY EXISTS) - 2025-10-14 21:40:47 ===
File index: 008679
Input file: /data/retarget/locomotion/raw/AMASS_SMPLXG/Eyes_Japan_Dataset/kanno/sitdown_standup-13-applause-kanno_stageii.npz
Output file: ../robot/ik_based/pkl/008679.pkl
Status: SKIPPED (ALREADY EXISTS)
==================================================

=== SKIPPED (ALREADY EXISTS) - 2025-10-14 21:40:47 ===
File index: 008680
Input file: /data/retarget/locomotion/raw/AMASS_SMPLXG/Eyes_Japan_Dataset/kanno/sitdown_standup-14-hold_chair-kanno_stageii.npz
Output file: ../robot/ik_based/pkl/008680.pkl
Status: SKIPPED (ALREADY EXISTS)
==================================================

=== SKIPPED (ALREADY EXISTS) - 2025-10-14 21:40:47 ===
File index: 008681
Input file: /data/retarget/locomotion/raw/AMASS_SMPLXG/Eyes_Japan_Dataset/kanno/throw_toss-04-both_hands_over_light-kanno_stageii.npz
Output file: ../robot/ik_based/pkl/008681.pkl
Status: SKIPPED (ALREADY EXISTS)
==================================================

=== SKIPPED (ALREADY EXISTS) - 2025-10-14 21:40:47 ===
File index: 008682
Input file: /data/retarget/locomotion/raw/AMASS_SMPLXG/Eyes_Japan_Dataset/kanno/throw_toss-05-both_hands_over_heavy-kanno_stageii.npz
Output file: ../robot/ik_based/pkl/008682.pkl
Status: SKIPPED (ALREADY EXISTS)
==================================================

=== SKIPPED (ALREADY EXISTS) - 2025-10-14 21:40:47 ===
File index: 008683
Input file: /data/retarget/locomotion/raw/AMASS_SMPLXG/Eyes_Japan_Dataset/kanno/walk-01-normal-kanno_stageii.npz
Output file: ../robot/ik_based/pkl/008683.pkl
Status: SKIPPED (ALREADY EXISTS)
==================================================

=== SKIPPED (ALREADY EXISTS) - 2025-10-14 21:40:47 ===
File index: 008684
Input file: /data/retarget/locomotion/raw/AMASS_SMPLXG/Eyes_Japan_Dataset/kanno/walk-02-drank-kanno_stageii.npz
Output file: ../robot/ik_based/pkl/008684.pkl
Status: SKIPPED (ALREADY EXISTS)
==================================================

=== SKIPPED (ALREADY EXISTS) - 2025-10-14 21:40:47 ===
File index: 008685
Input file: /data/retarget/locomotion/raw/AMASS_SMPLXG/Eyes_Japan_Dataset/kanno/walk-03-sneak-kanno_stageii.npz
Output file: ../robot/ik_based/pkl/008685.pkl
Status: SKIPPED (ALREADY EXISTS)
==================================================

=== SKIPPED (ALREADY EXISTS) - 2025-10-14 21:40:47 ===
File index: 008686
Input file: /data/retarget/locomotion/raw/AMASS_SMPLXG/Eyes_Japan_Dataset/kanno/walk-04-fast-kanno_stageii.npz
Output file: ../robot/ik_based/pkl/008686.pkl
Status: SKIPPED (ALREADY EXISTS)
==================================================

=== SKIPPED (ALREADY EXISTS) - 2025-10-14 21:40:47 ===
File index: 008687
Input file: /data/retarget/locomotion/raw/AMASS_SMPLXG/Eyes_Japan_Dataset/kanno/walk-05-backward-kanno_stageii.npz
Output file: ../robot/ik_based/pkl/008687.pkl
Status: SKIPPED (ALREADY EXISTS)
==================================================

=== SKIPPED (ALREADY EXISTS) - 2025-10-14 21:40:47 ===
File index: 008688
Input file: /data/retarget/locomotion/raw/AMASS_SMPLXG/Eyes_Japan_Dataset/kanno/walk-06-catwalk-kanno_stageii.npz
Output file: ../robot/ik_based/pkl/008688.pkl
Status: SKIPPED (ALREADY EXISTS)
==================================================

=== SKIPPED (ALREADY EXISTS) - 2025-10-14 21:40:47 ===
File index: 008689
Input file: /data/retarget/locomotion/raw/AMASS_SMPLXG/Eyes_Japan_Dataset/kanno/walk-07-moonwalk-kanno_stageii.npz
Output file: ../robot/ik_based/pkl/008689.pkl
Status: SKIPPED (ALREADY EXISTS)
==================================================

=== SKIPPED (ALREADY EXISTS) - 2025-10-14 21:40:47 ===
File index: 008690
Input file: /data/retarget/locomotion/raw/AMASS_SMPLXG/Eyes_Japan_Dataset/kanno/walk-08-lookfor-kanno_stageii.npz
Output file: ../robot/ik_based/pkl/008690.pkl
Status: SKIPPED (ALREADY EXISTS)
==================================================

=== SKIPPED (ALREADY EXISTS) - 2025-10-14 21:40:47 ===
File index: 008691
Input file: /data/retarget/locomotion/raw/AMASS_SMPLXG/Eyes_Japan_Dataset/kanno/walk-10-shoulder_bag-kanno_stageii.npz
Output file: ../robot/ik_based/pkl/008691.pkl
Status: SKIPPED (ALREADY EXISTS)
[...]

=== FILE SUCCESS - 2025-10-15 06:09:41 ===
File index: 010350
File number: 1901/9307
Input file: /data/retarget/locomotion/raw/AMASS_SMPLXG/HDM05/bk/HDM_bk_02-02_02_120_stageii.npz
Output file: ../robot/ik_based/pkl/010350.pkl
Processing time: 128.23 seconds
Total file time: 129.67 seconds
Status: SUCCESS
==================================================

=== SUCCESS LOG - 2025-10-15 06:12:02 ===
Input file: /data/retarget/locomotion/raw/AMASS_SMPLXG/HDM05/bk/HDM_bk_02-02_03_120_stageii.npz
Output file: ../robot/ik_based/pkl/010351.pkl
Robot type: unitree_g1
Processing time: 141.13 seconds

STEP-BY-STEP TIMING:
  Step 1 - Load SMPLX:        36.94s
  Step 2 - Align FPS:         22.66s
  Step 3 - Init Retarget:     0.53s
  Step 4 - Init Visualization: 0.00s
  Step 5 - Process Frames:    80.29s (avg: 0.050s/frame)
  Step 6 - Convert Arrays:    0.06s
  Step 7 - Forward Kinematics: 0.26s
  Step 8 - Save Data:         0.01s
Status: SUCCESS
==================================================

=== FILE SUCCESS - 2025-10-15 06:12:03 ===
File index: 010351
File number: 1902/9307
Input file: /data/retarget/locomotion/raw/AMASS_SMPLXG/HDM05/bk/HDM_bk_02-02_03_120_stageii.npz
Output file: ../robot/ik_based/pkl/010351.pkl
Processing time: 141.13 seconds
Total file time: 142.23 seconds
Status: SUCCESS
==================================================

=== SKIPPED (ALREADY EXISTS) - 2025-10-15 06:12:03 ===
File index: 010352
Input file: /data/retarget/locomotion/raw/AMASS_SMPLXG/HDM05/bk/HDM_bk_02-03_01_120_stageii.npz
Output file: ../robot/ik_based/pkl/010352.pkl
Status: SKIPPED (ALREADY EXISTS)
==================================================

=== SUCCESS LOG - 2025-10-15 06:13:13 ===
Input file: /data/retarget/locomotion/raw/AMASS_SMPLXG/HDM05/bk/HDM_bk_02-03_02_120_stageii.npz
Output file: ../robot/ik_based/pkl/010353.pkl
Robot type: unitree_g1
Processing time: 69.98 seconds

STEP-BY-STEP TIMING:
  Step 1 - Load SMPLX:        19.84s
  Step 2 - Align FPS:         5.37s
  Step 3 - Init Retarget:     0.29s
  Step 4 - Init Visualization: 0.00s
  Step 5 - Process Frames:    44.18s (avg: 0.095s/frame)
  Step 6 - Convert Arrays:    0.01s
  Step 7 - Forward Kinematics: 0.15s
  Step 8 - Save Data:         0.00s
Status: SUCCESS
==================================================

=== FILE SUCCESS - 2025-10-15 06:13:13 ===
File index: 010353
File number: 1904/9307
Input file: /data/retarget/locomotion/raw/AMASS_SMPLXG/HDM05/bk/HDM_bk_02-03_02_120_stageii.npz
Output file: ../robot/ik_based/pkl/010353.pkl
Processing time: 69.98 seconds
Total file time: 70.46 seconds
Status: SUCCESS
==================================================

=== SUCCESS LOG - 2025-10-15 06:14:57 ===
Input file: /data/retarget/locomotion/raw/AMASS_SMPLXG/HDM05/bk/HDM_bk_02-03_03_120_stageii.npz
Output file: ../robot/ik_based/pkl/010354.pkl
Robot type: unitree_g1
Processing time: 103.45 seconds

STEP-BY-STEP TIMING:
  Step 1 - Load SMPLX:        45.90s
  Step 2 - Align FPS:         9.82s
  Step 3 - Init Retarget:     0.46s
  Step 4 - Init Visualization: 0.00s
  Step 5 - Process Frames:    47.12s (avg: 0.088s/frame)
  Step 6 - Convert Arrays:    0.00s
  Step 7 - Forward Kinematics: 0.05s
  Step 8 - Save Data:         0.00s
Status: SUCCESS
==================================================

=== FILE SUCCESS - 2025-10-15 06:14:58 ===
File index: 010354
File number: 1905/9307
Input file: /data/retarget/locomotion/raw/AMASS_SMPLXG/HDM05/bk/HDM_bk_02-03_03_120_stageii.npz
Output file: ../robot/ik_based/pkl/010354.pkl
Processing time: 103.45 seconds
Total file time: 104.53 seconds
Status: SUCCESS
==================================================

=== SUCCESS LOG - 2025-10-15 06:16:17 ===
Input file: /data/retarget/locomotion/raw/AMASS_SMPLXG/HDM05/bk/HDM_bk_02-03_04_120_stageii.npz
Output file: ../robot/ik_based/pkl/010355.pkl
Robot type: unitree_g1
Processing time: 78.83 seconds

STEP-BY-STEP TIMING:
  Step 1 - Load SMPLX:        19.91s
  Step 2 - Align FPS:         8.95s
  Step 3 - Init Retarget:     0.70s
  Step 4 - Init Visualization: 0.00s
  Step 5 - Process Frames:    49.15s (avg: 0.103s/frame)
  Step 6 - Convert Arrays:    0.00s
  Step 7 - Forward Kinematics: 0.06s
  Step 8 - Save Data:         0.00s
Status: SUCCESS
==================================================

=== FILE SUCCESS - 2025-10-15 06:16:17 ===
File index: 010355
File number: 1906/9307
Input file: /data/retarget/locomotion/raw/AMASS_SMPLXG/HDM05/bk/HDM_bk_02-03_04_120_stageii.npz
Output file: ../robot/ik_based/pkl/010355.pkl
Processing time: 78.83 seconds
Total file time: 79.40 seconds
Status: SUCCESS
==================================================

=== SUCCESS LOG - 2025-10-15 06:18:31 ===
Input file: /data/retarget/locomotion/raw/AMASS_SMPLXG/HDM05/bk/HDM_bk_03-02_01_120_stageii.npz
Output file: ../robot/ik_based/pkl/010356.pkl
Robot type: unitree_g1
Processing time: 133.69 seconds

STEP-BY-STEP TIMING:
  Step 1 - Load SMPLX:        39.50s
  Step 2 - Align FPS:         16.66s
  Step 3 - Init Retarget:     0.38s
  Step 4 - Init Visualization: 0.00s
  Step 5 - Process Frames:    76.64s (avg: 0.062s/frame)
  Step 6 - Convert Arrays:    0.01s
  Step 7 - Forward Kinematics: 0.10s
  Step 8 - Save Data:         0.11s
Status: SUCCESS
==================================================

=== FILE SUCCESS - 2025-10-15 06:18:33 ===
File index: 010356
File number: 1907/9307
Input file: /data/retarget/locomotion/raw/AMASS_SMPLXG/HDM05/bk/HDM_bk_03-02_01_120_stageii.npz
Output file: ../robot/ik_based/pkl/010356.pkl
Processing time: 133.69 seconds
Total file time: 135.37 seconds
Status: SUCCESS
==================================================

=== SUCCESS LOG - 2025-10-15 06:20:27 ===
Input file: /data/retarget/locomotion/raw/AMASS_SMPLXG/HDM05/bk/HDM_bk_03-02_02_120_stageii.npz
Output file: ../robot/ik_based/pkl/010357.pkl
Robot type: unitree_g1
Processing time: 114.41 seconds

STEP-BY-STEP TIMING:
  Step 1 - Load SMPLX:        21.08s
  Step 2 - Align FPS:         17.48s
  Step 3 - Init Retarget:     0.32s
  Step 4 - Init Visualization: 0.00s
  Step 5 - Process Frames:    75.22s (avg: 0.073s/frame)
  Step 6 - Convert Arrays:    0.03s
  Step 7 - Forward Kinematics: 0.14s
  Step 8 - Save Data:         0.01s
Status: SUCCESS
==================================================

=== FILE SUCCESS - 2025-10-15 06:20:28 ===
File index: 010357
File number: 1908/9307
Input file: /data/retarget/locomotion/raw/AMASS_SMPLXG/HDM05/bk/HDM_bk_03-02_02_120_stageii.npz
Output file: ../robot/ik_based/pkl/010357.pkl
Processing time: 114.41 seconds
Total file time: 115.23 seconds
Status: SUCCESS
==================================================

=== SUCCESS LOG - 2025-10-15 06:22:31 ===
Input file: /data/retarget/locomotion/raw/AMASS_SMPLXG/HDM05/bk/HDM_bk_03-02_03_120_stageii.npz
Output file: ../robot/ik_based/pkl/010358.pkl
Robot type: unitree_g1
Processing time: 123.43 seconds

STEP-BY-STEP TIMING:
  Step 1 - Load SMPLX:        24.57s
  Step 2 - Align FPS:         15.89s
  Step 3 - Init Retarget:     0.91s
  Step 4 - Init Visualization: 0.00s
  Step 5 - Process Frames:    81.81s (avg: 0.077s/frame)
  Step 6 - Convert Arrays:    0.00s
  Step 7 - Forward Kinematics: 0.13s
  Step 8 - Save Data:         0.02s
Status: SUCCESS
==================================================

=== FILE SUCCESS - 2025-10-15 06:22:32 ===
File index: 010358
File number: 1909/9307
Input file: /data/retarget/locomotion/raw/AMASS_SMPLXG/HDM05/bk/HDM_bk_03-02_03_120_stageii.npz
Output file: ../robot/ik_based/pkl/010358.pkl
Processing time: 123.43 seconds
Total file time: 124.47 seconds
Status: SUCCESS
==================================================

=== SUCCESS LOG - 2025-10-15 06:24:23 ===
Input file: /data/retarget/locomotion/raw/AMASS_SMPLXG/HDM05/bk/HDM_bk_03-03_01_120_stageii.npz
Output file: ../robot/ik_based/pkl/010359.pkl
Robot type: unitree_g1
Processing time: 110.55 seconds

STEP-BY-STEP TIMING:
  Step 1 - Load SMPLX:        22.69s
  Step 2 - Align FPS:         13.35s
  Step 3 - Init Retarget:     0.90s
  Step 4 - Init Visualization: 0.00s
  Step 5 - Process Frames:    73.31s (avg: 0.066s/frame)
  Step 6 - Convert Arrays:    0.00s
  Step 7 - Forward Kinematics: 0.16s
  Step 8 - Save Data:         0.06s
Status: SUCCESS
==================================================

=== FILE SUCCESS - 2025-10-15 06:24:24 ===
File index: 010359
File number: 1910/9307
Input file: /data/retarget/locomotion/raw/AMASS_SMPLXG/HDM05/bk/HDM_bk_03-03_01_120_stageii.npz
Output file: ../robot/ik_based/pkl/010359.pkl
Processing time: 110.55 seconds
Total file time: 111.64 seconds
Status: SUCCESS
==================================================

=== SUCCESS LOG - 2025-10-15 06:26:31 ===
Input file: /data/retarget/locomotion/raw/AMASS_SMPLXG/HDM05/bk/HDM_bk_03-03_02_120_stageii.npz
Output file: ../robot/ik_based/pkl/010360.pkl
Robot type: unitree_g1
Processing time: 127.23 seconds

STEP-BY-STEP TIMING:
  Step 1 - Load SMPLX:        16.11s
  Step 2 - Align FPS:         16.19s
  Step 3 - Init Retarget:     0.40s
  Step 4 - Init Visualization: 0.00s
  Step 5 - Process Frames:    94.46s (avg: 0.075s/frame)
  Step 6 - Convert Arrays:    0.00s
  Step 7 - Forward Kinematics: 0.04s
  Step 8 - Save Data:         0.00s
Status: SUCCESS
==================================================

=== FILE SUCCESS - 2025-10-15 06:26:32 ===
File index: 010360
File number: 1911/9307
Input file: /data/retarget/locomotion/raw/AMASS_SMPLXG/HDM05/bk/HDM_bk_03-03_02_120_stageii.npz
Output file: ../robot/ik_based/pkl/010360.pkl
Processing time: 127.23 seconds
Total file time: 127.98 seconds
Status: SUCCESS
==================================================

=== SUCCESS LOG - 2025-10-15 06:28:30 ===
Input file: /data/retarget/locomotion/raw/AMASS_SMPLXG/HDM05/bk/HDM_bk_03-03_03_120_stageii.npz
Output file: ../robot/ik_based/pkl/010361.pkl
Robot type: unitree_g1
Processing time: 117.59 seconds

STEP-BY-STEP TIMING:
  Step 1 - Load SMPLX:        5.06s
  Step 2 - Align FPS:         12.19s
  Step 3 - Init Retarget:     0.64s
  Step 4 - Init Visualization: 0.00s
  Step 5 - Process Frames:    99.38s (avg: 0.083s/frame)
  Step 6 - Convert Arrays:    0.00s
  Step 7 - Forward Kinematics: 0.14s
  Step 8 - Save Data:         0.01s
Status: SUCCESS
==================================================

=== FILE SUCCESS - 2025-10-15 06:28:31 ===
File index: 010361
File number: 1912/9307
Input file: /data/retarget/locomotion/raw/AMASS_SMPLXG/HDM05/bk/HDM_bk_03-03_03_120_stageii.npz
Output file: ../robot/ik_based/pkl/010361.pkl
Processing time: 117.59 seconds
Total file time: 118.96 seconds
Status: SUCCESS
==================================================

=== SUCCESS LOG - 2025-10-15 06:31:55 ===
Input file: /data/retarget/locomotion/raw/AMASS_SMPLXG/HDM05/bk/HDM_bk_03-04_01_120_stageii.npz
Output file: ../robot/ik_based/pkl/010362.pkl
Robot type: unitree_g1
Processing time: 204.02 seconds

STEP-BY-STEP TIMING:
  Step 1 - Load SMPLX:        8.99s
  Step 2 - Align FPS:         37.19s
  Step 3 - Init Retarget:     0.71s
  Step 4 - Init Visualization: 0.00s
  Step 5 - Process Frames:    156.91s (avg: 0.055s/frame)
  Step 6 - Convert Arrays:    0.01s
  Step 7 - Forward Kinematics: 0.11s
  Step 8 - Save Data:         0.01s
Status: SUCCESS
==================================================

=== FILE SUCCESS - 2025-10-15 06:31:58 ===
File index: 010362
File number: 1913/9307
Input file: /data/retarget/locomotion/raw/AMASS_SMPLXG/HDM05/bk/HDM_bk_03-04_01_120_stageii.npz
Output file: ../robot/ik_based/pkl/010362.pkl
Processing time: 204.02 seconds
Total file time: 206.90 seconds
Status: SUCCESS
==================================================

=== SUCCESS LOG - 2025-10-15 06:34:34 ===
Input file: /data/retarget/locomotion/raw/AMASS_SMPLXG/HDM05/bk/HDM_bk_03-04_02_120_stageii.npz
Output file: ../robot/ik_based/pkl/010363.pkl
Robot type: unitree_g1
Processing time: 156.05 seconds

STEP-BY-STEP TIMING:
  Step 1 - Load SMPLX:        21.20s
  Step 2 - Align FPS:         20.37s
  Step 3 - Init Retarget:     0.85s
  Step 4 - Init Visualization: 0.00s
  Step 5 - Process Frames:    113.21s (avg: 0.061s/frame)
  Step 6 - Convert Arrays:    0.01s
  Step 7 - Forward Kinematics: 0.26s
  Step 8 - Save Data:         0.01s
Status: SUCCESS
==================================================

=== FILE SUCCESS - 2025-10-15 06:34:36 ===
File index: 010363
File number: 1914/9307
Input file: /data/retarget/locomotion/raw/AMASS_SMPLXG/HDM05/bk/HDM_bk_03-04_02_120_stageii.npz
Output file: ../robot/ik_based/pkl/010363.pkl
Processing time: 156.05 seconds
Total file time: 157.79 seconds
Status: SUCCESS
==================================================

=== SUCCESS LOG - 2025-10-15 06:37:15 ===
Input file: /data/retarget/locomotion/raw/AMASS_SMPLXG/HDM05/bk/HDM_bk_03-04_03_120_stageii.npz
Output file: ../robot/ik_based/pkl/010364.pkl
Robot type: unitree_g1
Processing time: 159.52 seconds

STEP-BY-STEP TIMING:
  Step 1 - Load SMPLX:        21.60s
  Step 2 - Align FPS:         17.79s
  Step 3 - Init Retarget:     0.99s
  Step 4 - Init Visualization: 0.00s
  Step 5 - Process Frames:    118.89s (avg: 0.061s/frame)
  Step 6 - Convert Arrays:    0.02s
  Step 7 - Forward Kinematics: 0.09s
  Step 8 - Save Data:         0.01s
Status: SUCCESS
==================================================

=== FILE SUCCESS - 2025-10-15 06:37:17 ===
File index: 010364
File number: 1915/9307
Input file: /data/retarget/locomotion/raw/AMASS_SMPLXG/HDM05/bk/HDM_bk_03-04_03_120_stageii.npz
Output file: ../robot/ik_based/pkl/010364.pkl
Processing time: 159.52 seconds
Total file time: 161.35 seconds
Status: SUCCESS
==================================================

=== SUCCESS LOG - 2025-10-15 06:39:55 ===
Input file: /data/retarget/locomotion/raw/AMASS_SMPLXG/HDM05/bk/HDM_bk_03-04_04_120_stageii.npz
Output file: ../robot/ik_based/pkl/010365.pkl
Robot type: unitree_g1
Processing time: 157.99 seconds

STEP-BY-STEP TIMING:
  Step 1 - Load SMPLX:        17.83s
  Step 2 - Align FPS:         18.41s
  Step 3 - Init Retarget:     0.49s
  Step 4 - Init Visualization: 0.00s
  Step 5 - Process Frames:    121.10s (avg: 0.066s/frame)
  Step 6 - Convert Arrays:    0.01s
  Step 7 - Forward Kinematics: 0.08s
  Step 8 - Save Data:         0.01s
Status: SUCCESS
==================================================

=== FILE SUCCESS - 2025-10-15 06:39:56 ===
File index: 010365
File number: 1916/9307
Input file: /data/retarget/locomotion/raw/AMASS_SMPLXG/HDM05/bk/HDM_bk_03-04_04_120_stageii.npz
Output file: ../robot/ik_based/pkl/010365.pkl
Processing time: 157.99 seconds
Total file time: 159.37 seconds
Status: SUCCESS
==================================================

=== SUCCESS LOG - 2025-10-15 06:42:04 ===
Input file: /data/retarget/locomotion/raw/AMASS_SMPLXG/HDM05/bk/HDM_bk_03-05_01_120_stageii.npz
Output file: ../robot/ik_based/pkl/010366.pkl
Robot type: unitree_g1
Processing time: 127.45 seconds

STEP-BY-STEP TIMING:
  Step 1 - Load SMPLX:        17.40s
  Step 2 - Align FPS:         20.57s
  Step 3 - Init Retarget:     0.46s
  Step 4 - Init Visualization: 0.00s
  Step 5 - Process Frames:    88.62s (avg: 0.059s/frame)
  Step 6 - Convert Arrays:    0.02s
  Step 7 - Forward Kinematics: 0.26s
  Step 8 - Save Data:         0.01s
Status: SUCCESS
==================================================

=== FILE SUCCESS - 2025-10-15 06:42:05 ===
File index: 010366
File number: 1917/9307
Input file: /data/retarget/locomotion/raw/AMASS_SMPLXG/HDM05/bk/HDM_bk_03-05_01_120_stageii.npz
Output file: ../robot/ik_based/pkl/010366.pkl
Processing time: 127.45 seconds
Total file time: 128.65 seconds
Status: SUCCESS
==================================================

=== SKIPPED (ALREADY EXISTS) - 2025-10-15 06:42:05 ===
File index: 010367
Input file: /data/retarget/locomotion/raw/AMASS_SMPLXG/HDM05/bk/HDM_bk_03-05_02_120_stageii.npz
Output file: ../robot/ik_based/pkl/010367.pkl
Status: SKIPPED (ALREADY EXISTS)
==================================================

=== SUCCESS LOG - 2025-10-15 06:44:02 ===
Input file: /data/retarget/locomotion/raw/AMASS_SMPLXG/HDM05/bk/HDM_bk_03-05_03_120_stageii.npz
Output file: ../robot/ik_based/pkl/010368.pkl
Robot type: unitree_g1
Processing time: 117.33 seconds

STEP-BY-STEP TIMING:
  Step 1 - Load SMPLX:        33.47s
  Step 2 - Align FPS:         13.86s
  Step 3 - Init Retarget:     0.32s
  Step 4 - Init Visualization: 0.00s
  Step 5 - Process Frames:    69.33s (avg: 0.060s/frame)
  Step 6 - Convert Arrays:    0.00s
  Step 7 - Forward Kinematics: 0.21s
  Step 8 - Save Data:         0.01s
Status: SUCCESS
==================================================

=== FILE SUCCESS - 2025-10-15 06:44:03 ===
File index: 010368
File number: 1919/9307
Input file: /data/retarget/locomotion/raw/AMASS_SMPLXG/HDM05/bk/HDM_bk_03-05_03_120_stageii.npz
Output file: ../robot/ik_based/pkl/010368.pkl
Processing time: 117.33 seconds
Total file time: 118.22 seconds
Status: SUCCESS
==================================================

=== SUCCESS LOG - 2025-10-15 06:45:26 ===
Input file: /data/retarget/locomotion/raw/AMASS_SMPLXG/HDM05/bk/HDM_bk_03-11_01_120_stageii.npz
Output file: ../robot/ik_based/pkl/010369.pkl
Robot type: unitree_g1
Processing time: 82.34 seconds

STEP-BY-STEP TIMING:
  Step 1 - Load SMPLX:        31.74s
  Step 2 - Align FPS:         11.08s
  Step 3 - Init Retarget:     0.39s
  Step 4 - Init Visualization: 0.00s
  Step 5 - Process Frames:    38.98s (avg: 0.050s/frame)
  Step 6 - Convert Arrays:    0.00s
  Step 7 - Forward Kinematics: 0.05s
  Step 8 - Save Data:         0.00s
Status: SUCCESS
==================================================

=== FILE SUCCESS - 2025-10-15 06:45:27 ===
File index: 010369
File number: 1920/9307
Input file: /data/retarget/locomotion/raw/AMASS_SMPLXG/HDM05/bk/HDM_bk_03-11_01_120_stageii.npz
Output file: ../robot/ik_based/pkl/010369.pkl
Processing time: 82.34 seconds
Total file time: 83.44 seconds
Status: SUCCESS
==================================================

=== SUCCESS LOG - 2025-10-15 06:47:19 ===
Input file: /data/retarget/locomotion/raw/AMASS_SMPLXG/HDM05/bk/HDM_bk_03-11_02_120_stageii.npz
Output file: ../robot/ik_based/pkl/010370.pkl
Robot type: unitree_g1
Processing time: 112.82 seconds

STEP-BY-STEP TIMING:
  Step 1 - Load SMPLX:        52.59s
  Step 2 - Align FPS:         13.66s
  Step 3 - Init Retarget:     0.54s
  Step 4 - Init Visualization: 0.00s
  Step 5 - Process Frames:    45.62s (avg: 0.056s/frame)
  Step 6 - Convert Arrays:    0.00s
  Step 7 - Forward Kinematics: 0.17s
  Step 8 - Save Data:         0.02s
Status: SUCCESS
==================================================

=== FILE SUCCESS - 2025-10-15 06:47:21 ===
File index: 010370
File number: 1921/9307
Input file: /data/retarget/locomotion/raw/AMASS_SMPLXG/HDM05/bk/HDM_bk_03-11_02_120_stageii.npz
Output file: ../robot/ik_based/pkl/010370.pkl
Processing time: 112.82 seconds
Total file time: 113.92 seconds
Status: SUCCESS
==================================================

=== SUCCESS LOG - 2025-10-15 06:49:25 ===
Input file: /data/retarget/locomotion/raw/AMASS_SMPLXG/HDM05/bk/HDM_bk_03-11_03_120_stageii.npz
Output file: ../robot/ik_based/pkl/010371.pkl
Robot type: unitree_g1
Processing time: 124.39 seconds

STEP-BY-STEP TIMING:
  Step 1 - Load SMPLX:        52.56s
  Step 2 - Align FPS:         15.32s
  Step 3 - Init Retarget:     0.59s
  Step 4 - Init Visualization: 0.00s
  Step 5 - Process Frames:    55.49s (avg: 0.074s/frame)
  Step 6 - Convert Arrays:    0.05s
  Step 7 - Forward Kinematics: 0.16s
  Step 8 - Save Data:         0.02s
Status: SUCCESS
==================================================

=== FILE SUCCESS - 2025-10-15 06:49:26 ===
File index: 010371
File number: 1922/9307
Input file: /data/retarget/locomotion/raw/AMASS_SMPLXG/HDM05/bk/HDM_bk_03-11_03_120_stageii.npz
Output file: ../robot/ik_based/pkl/010371.pkl
Processing time: 124.39 seconds
Total file time: 125.20 seconds
Status: SUCCESS
==================================================
