
=== ERROR LOG - 2025-10-14 19:39:23 ===
Input file: /data/retarget/locomotion/raw/AMASS_SMPLXG/EKUT/234/male_stagei.npz
Output file: ../robot/ik_based/pkl/008011.pkl
Robot type: unitree_g1
Processing time: 1.08 seconds
Error message: 'pose_body is not a file in the archive'
Error type: KeyError
==================================================

=== ERROR LOG - 2025-10-14 19:39:23 ===
Input file: /data/retarget/locomotion/raw/AMASS_SMPLXG/EKUT/265/MTR03_stageii.npz
Output file: ../robot/ik_based/pkl/008024.pkl
Robot type: unitree_g1
Processing time: 1.22 seconds

STEP-BY-STEP TIMING (FAILED):
  Load Smplx: 1.21s
Error message: need at least one array to stack
Error type: ValueError
==================================================

=== ERROR LOG - 2025-10-14 19:39:24 ===
Input file: /data/retarget/locomotion/raw/AMASS_SMPLXG/EKUT/234/male_stagei.npz
Output file: ../robot/ik_based/pkl/008011.pkl
Robot type: unitree_g1
Processing time: 1.05 seconds
Error message: 'pose_body is not a file in the archive'
Error type: KeyError
==================================================

=== ERROR LOG - 2025-10-14 19:39:24 ===
Input file: /data/retarget/locomotion/raw/AMASS_SMPLXG/EKUT/265/MTR03_stageii.npz
Output file: ../robot/ik_based/pkl/008024.pkl
Robot type: unitree_g1
Processing time: 1.22 seconds

STEP-BY-STEP TIMING (FAILED):
  Load Smplx: 1.21s
Error message: need at least one array to stack
Error type: ValueError
==================================================

=== ERROR LOG - 2025-10-14 19:39:24 ===
Input file: /data/retarget/locomotion/raw/AMASS_SMPLXG/EKUT/265/male_stagei.npz
Output file: ../robot/ik_based/pkl/008083.pkl
Robot type: unitree_g1
Processing time: 0.94 seconds
Error message: 'pose_body is not a file in the archive'
Error type: KeyError
==================================================

=== ERROR LOG - 2025-10-14 19:39:24 ===
Input file: /data/retarget/locomotion/raw/AMASS_SMPLXG/EKUT/300/male_stagei.npz
Output file: ../robot/ik_based/pkl/008219.pkl
Robot type: unitree_g1
Processing time: 0.97 seconds
Error message: 'pose_body is not a file in the archive'
Error type: KeyError
==================================================

=== ERROR LOG - 2025-10-14 19:39:25 ===
Input file: /data/retarget/locomotion/raw/AMASS_SMPLXG/EKUT/265/male_stagei.npz
Output file: ../robot/ik_based/pkl/008083.pkl
Robot type: unitree_g1
Processing time: 0.86 seconds
Error message: 'pose_body is not a file in the archive'
Error type: KeyError
==================================================

=== ERROR LOG - 2025-10-14 19:39:25 ===
Input file: /data/retarget/locomotion/raw/AMASS_SMPLXG/EKUT/300/male_stagei.npz
Output file: ../robot/ik_based/pkl/008219.pkl
Robot type: unitree_g1
Processing time: 0.82 seconds
Error message: 'pose_body is not a file in the archive'
Error type: KeyError
==================================================

=== ERROR LOG - 2025-10-14 19:39:25 ===
Input file: /data/retarget/locomotion/raw/AMASS_SMPLXG/Eyes_Japan_Dataset/frederic/male_stagei.npz
Output file: ../robot/ik_based/pkl/008335.pkl
Robot type: unitree_g1
Processing time: 0.74 seconds
Error message: 'pose_body is not a file in the archive'
Error type: KeyError
==================================================

=== ERROR LOG - 2025-10-14 19:39:25 ===
Input file: /data/retarget/locomotion/raw/AMASS_SMPLXG/Eyes_Japan_Dataset/aita/male_stagei.npz
Output file: ../robot/ik_based/pkl/008280.pkl
Robot type: unitree_g1
Processing time: 0.93 seconds
Error message: 'pose_body is not a file in the archive'
Error type: KeyError
==================================================

=== ERROR LOG - 2025-10-14 19:39:26 ===
Input file: /data/retarget/locomotion/raw/AMASS_SMPLXG/Eyes_Japan_Dataset/aita/male_stagei.npz
Output file: ../robot/ik_based/pkl/008280.pkl
Robot type: unitree_g1
Processing time: 0.83 seconds
Error message: 'pose_body is not a file in the archive'
Error type: KeyError
==================================================

=== ERROR LOG - 2025-10-14 19:39:26 ===
Input file: /data/retarget/locomotion/raw/AMASS_SMPLXG/Eyes_Japan_Dataset/frederic/male_stagei.npz
Output file: ../robot/ik_based/pkl/008335.pkl
Robot type: unitree_g1
Processing time: 0.95 seconds
Error message: 'pose_body is not a file in the archive'
Error type: KeyError
==================================================

=== ERROR LOG - 2025-10-14 19:39:26 ===
Input file: /data/retarget/locomotion/raw/AMASS_SMPLXG/Eyes_Japan_Dataset/hamada/male_stagei.npz
Output file: ../robot/ik_based/pkl/008413.pkl
Robot type: unitree_g1
Processing time: 0.80 seconds
Error message: 'pose_body is not a file in the archive'
Error type: KeyError
==================================================

=== ERROR LOG - 2025-10-14 19:39:26 ===
Input file: /data/retarget/locomotion/raw/AMASS_SMPLXG/Eyes_Japan_Dataset/ichige/male_stagei.npz
Output file: ../robot/ik_based/pkl/008509.pkl
Robot type: unitree_g1
Processing time: 0.91 seconds
Error message: 'pose_body is not a file in the archive'
Error type: KeyError
==================================================

=== ERROR LOG - 2025-10-14 19:39:27 ===
Input file: /data/retarget/locomotion/raw/AMASS_SMPLXG/Eyes_Japan_Dataset/hamada/male_stagei.npz
Output file: ../robot/ik_based/pkl/008413.pkl
Robot type: unitree_g1
Processing time: 0.97 seconds
Error message: 'pose_body is not a file in the archive'
Error type: KeyError
==================================================

=== ERROR LOG - 2025-10-14 19:39:27 ===
Input file: /data/retarget/locomotion/raw/AMASS_SMPLXG/Eyes_Japan_Dataset/ichige/male_stagei.npz
Output file: ../robot/ik_based/pkl/008509.pkl
Robot type: unitree_g1
Processing time: 0.96 seconds
Error message: 'pose_body is not a file in the archive'
Error type: KeyError
==================================================

=== SUCCESS LOG - 2025-10-14 19:40:57 ===
Input file: /data/retarget/locomotion/raw/AMASS_SMPLXG/Eyes_Japan_Dataset/ichige/soccer-03-volley_kick-ichige_stageii.npz
Output file: ../robot/ik_based/pkl/008514.pkl
Robot type: unitree_g1
Processing time: 89.69 seconds

STEP-BY-STEP TIMING:
  Step 1 - Load SMPLX:        11.91s
  Step 2 - Align FPS:         12.03s
  Step 3 - Init Retarget:     1.21s
  Step 4 - Init Visualization: 0.00s
  Step 5 - Process Frames:    63.29s (avg: 0.077s/frame)
  Step 6 - Convert Arrays:    0.00s
  Step 7 - Forward Kinematics: 1.08s
  Step 8 - Save Data:         0.01s
Status: SUCCESS
==================================================

=== SUCCESS LOG - 2025-10-14 19:41:00 ===
Input file: /data/retarget/locomotion/raw/AMASS_SMPLXG/Eyes_Japan_Dataset/ichige/soccer-03-volley_kick-ichige_stageii.npz
Output file: ../robot/ik_based/pkl/008514.pkl
Robot type: unitree_g1
Processing time: 94.32 seconds

STEP-BY-STEP TIMING:
  Step 1 - Load SMPLX:        11.02s
  Step 2 - Align FPS:         14.27s
  Step 3 - Init Retarget:     1.17s
  Step 4 - Init Visualization: 0.00s
  Step 5 - Process Frames:    66.59s (avg: 0.081s/frame)
  Step 6 - Convert Arrays:    0.01s
  Step 7 - Forward Kinematics: 1.09s
  Step 8 - Save Data:         0.01s
Status: SUCCESS
==================================================

=== SUCCESS LOG - 2025-10-14 19:42:04 ===
Input file: /data/retarget/locomotion/raw/AMASS_SMPLXG/Eyes_Japan_Dataset/ichige/soccer-06-pass_outside-ichige_stageii.npz
Output file: ../robot/ik_based/pkl/008515.pkl
Robot type: unitree_g1
Processing time: 66.70 seconds

STEP-BY-STEP TIMING:
  Step 1 - Load SMPLX:        2.91s
  Step 2 - Align FPS:         8.30s
  Step 3 - Init Retarget:     0.44s
  Step 4 - Init Visualization: 0.00s
  Step 5 - Process Frames:    54.35s (avg: 0.061s/frame)
  Step 6 - Convert Arrays:    0.00s
  Step 7 - Forward Kinematics: 0.55s
  Step 8 - Save Data:         0.00s
Status: SUCCESS
==================================================

=== SUCCESS LOG - 2025-10-14 19:42:05 ===
Input file: /data/retarget/locomotion/raw/AMASS_SMPLXG/Eyes_Japan_Dataset/ichige/sitdown_standup-11-one_knee_drawn_up-ichige_stageii.npz
Output file: ../robot/ik_based/pkl/008513.pkl
Robot type: unitree_g1
Processing time: 157.80 seconds

STEP-BY-STEP TIMING:
  Step 1 - Load SMPLX:        14.54s
  Step 2 - Align FPS:         21.35s
  Step 3 - Init Retarget:     0.41s
  Step 4 - Init Visualization: 0.00s
  Step 5 - Process Frames:    121.18s (avg: 0.065s/frame)
  Step 6 - Convert Arrays:    0.01s
  Step 7 - Forward Kinematics: 0.25s
  Step 8 - Save Data:         0.00s
Status: SUCCESS
==================================================

=== SUCCESS LOG - 2025-10-14 19:42:12 ===
Input file: /data/retarget/locomotion/raw/AMASS_SMPLXG/Eyes_Japan_Dataset/ichige/sitdown_standup-11-one_knee_drawn_up-ichige_stageii.npz
Output file: ../robot/ik_based/pkl/008513.pkl
Robot type: unitree_g1
Processing time: 165.69 seconds

STEP-BY-STEP TIMING:
  Step 1 - Load SMPLX:        12.72s
  Step 2 - Align FPS:         24.85s
  Step 3 - Init Retarget:     0.41s
  Step 4 - Init Visualization: 0.00s
  Step 5 - Process Frames:    126.85s (avg: 0.068s/frame)
  Step 6 - Convert Arrays:    0.01s
  Step 7 - Forward Kinematics: 0.79s
  Step 8 - Save Data:         0.01s
Status: SUCCESS
==================================================

=== SUCCESS LOG - 2025-10-14 19:42:12 ===
Input file: /data/retarget/locomotion/raw/AMASS_SMPLXG/Eyes_Japan_Dataset/ichige/soccer-06-pass_outside-ichige_stageii.npz
Output file: ../robot/ik_based/pkl/008515.pkl
Robot type: unitree_g1
Processing time: 70.89 seconds

STEP-BY-STEP TIMING:
  Step 1 - Load SMPLX:        2.86s
  Step 2 - Align FPS:         9.14s
  Step 3 - Init Retarget:     0.37s
  Step 4 - Init Visualization: 0.00s
  Step 5 - Process Frames:    58.03s (avg: 0.065s/frame)
  Step 6 - Convert Arrays:    0.00s
  Step 7 - Forward Kinematics: 0.46s
  Step 8 - Save Data:         0.00s
Status: SUCCESS
==================================================

=== SUCCESS LOG - 2025-10-14 19:43:17 ===
Input file: /data/retarget/locomotion/raw/AMASS_SMPLXG/Eyes_Japan_Dataset/ichige/soccer-28-pk_feint-ichige_stageii.npz
Output file: ../robot/ik_based/pkl/008519.pkl
Robot type: unitree_g1
Processing time: 71.26 seconds

STEP-BY-STEP TIMING:
  Step 1 - Load SMPLX:        2.88s
  Step 2 - Align FPS:         13.72s
  Step 3 - Init Retarget:     0.27s
  Step 4 - Init Visualization: 0.00s
  Step 5 - Process Frames:    54.05s (avg: 0.061s/frame)
  Step 6 - Convert Arrays:    0.00s
  Step 7 - Forward Kinematics: 0.18s
  Step 8 - Save Data:         0.01s
Status: SUCCESS
==================================================

=== SUCCESS LOG - 2025-10-14 19:43:20 ===
Input file: /data/retarget/locomotion/raw/AMASS_SMPLXG/Eyes_Japan_Dataset/ichige/soccer-27-pk_inside-ichige_stageii.npz
Output file: ../robot/ik_based/pkl/008518.pkl
Robot type: unitree_g1
Processing time: 74.84 seconds

STEP-BY-STEP TIMING:
  Step 1 - Load SMPLX:        3.07s
  Step 2 - Align FPS:         13.28s
  Step 3 - Init Retarget:     0.49s
  Step 4 - Init Visualization: 0.02s
  Step 5 - Process Frames:    57.89s (avg: 0.065s/frame)
  Step 6 - Convert Arrays:    0.01s
  Step 7 - Forward Kinematics: 0.04s
  Step 8 - Save Data:         0.00s
Status: SUCCESS
==================================================

=== SUCCESS LOG - 2025-10-14 19:43:30 ===
Input file: /data/retarget/locomotion/raw/AMASS_SMPLXG/Eyes_Japan_Dataset/ichige/soccer-28-pk_feint-ichige_stageii.npz
Output file: ../robot/ik_based/pkl/008519.pkl
Robot type: unitree_g1
Processing time: 75.84 seconds

STEP-BY-STEP TIMING:
  Step 1 - Load SMPLX:        8.06s
  Step 2 - Align FPS:         11.39s
  Step 3 - Init Retarget:     0.51s
  Step 4 - Init Visualization: 0.00s
  Step 5 - Process Frames:    55.57s (avg: 0.062s/frame)
  Step 6 - Convert Arrays:    0.00s
  Step 7 - Forward Kinematics: 0.17s
  Step 8 - Save Data:         0.01s
Status: SUCCESS
==================================================

=== SUCCESS LOG - 2025-10-14 19:43:34 ===
Input file: /data/retarget/locomotion/raw/AMASS_SMPLXG/Eyes_Japan_Dataset/ichige/soccer-27-pk_inside-ichige_stageii.npz
Output file: ../robot/ik_based/pkl/008518.pkl
Robot type: unitree_g1
Processing time: 79.74 seconds

STEP-BY-STEP TIMING:
  Step 1 - Load SMPLX:        8.38s
  Step 2 - Align FPS:         12.82s
  Step 3 - Init Retarget:     0.34s
  Step 4 - Init Visualization: 0.00s
  Step 5 - Process Frames:    58.13s (avg: 0.065s/frame)
  Step 6 - Convert Arrays:    0.00s
  Step 7 - Forward Kinematics: 0.02s
  Step 8 - Save Data:         0.00s
Status: SUCCESS
==================================================

=== SUCCESS LOG - 2025-10-14 19:44:30 ===
Input file: /data/retarget/locomotion/raw/AMASS_SMPLXG/Eyes_Japan_Dataset/ichige/soccer-29-heel_lift-ichige_stageii.npz
Output file: ../robot/ik_based/pkl/008520.pkl
Robot type: unitree_g1
Processing time: 72.17 seconds

STEP-BY-STEP TIMING:
  Step 1 - Load SMPLX:        3.45s
  Step 2 - Align FPS:         8.64s
  Step 3 - Init Retarget:     0.40s
  Step 4 - Init Visualization: 0.00s
  Step 5 - Process Frames:    59.30s (avg: 0.066s/frame)
  Step 6 - Convert Arrays:    0.01s
  Step 7 - Forward Kinematics: 0.19s
  Step 8 - Save Data:         0.01s
Status: SUCCESS
==================================================

=== SUCCESS LOG - 2025-10-14 19:44:40 ===
Input file: /data/retarget/locomotion/raw/AMASS_SMPLXG/Eyes_Japan_Dataset/ichige/soccer-29-heel_lift-ichige_stageii.npz
Output file: ../robot/ik_based/pkl/008520.pkl
Robot type: unitree_g1
Processing time: 69.10 seconds

STEP-BY-STEP TIMING:
  Step 1 - Load SMPLX:        3.41s
  Step 2 - Align FPS:         6.51s
  Step 3 - Init Retarget:     0.76s
  Step 4 - Init Visualization: 0.00s
  Step 5 - Process Frames:    58.11s (avg: 0.065s/frame)
  Step 6 - Convert Arrays:    0.00s
  Step 7 - Forward Kinematics: 0.14s
  Step 8 - Save Data:         0.01s
Status: SUCCESS
==================================================

=== SUCCESS LOG - 2025-10-14 19:44:47 ===
Input file: /data/retarget/locomotion/raw/AMASS_SMPLXG/Eyes_Japan_Dataset/ichige/soccer-31-goal-ichige_stageii.npz
Output file: ../robot/ik_based/pkl/008521.pkl
Robot type: unitree_g1
Processing time: 86.66 seconds

STEP-BY-STEP TIMING:
  Step 1 - Load SMPLX:        2.65s
  Step 2 - Align FPS:         10.67s
  Step 3 - Init Retarget:     0.36s
  Step 4 - Init Visualization: 0.00s
  Step 5 - Process Frames:    72.87s (avg: 0.082s/frame)
  Step 6 - Convert Arrays:    0.00s
  Step 7 - Forward Kinematics: 0.03s
  Step 8 - Save Data:         0.05s
Status: SUCCESS
==================================================

=== SUCCESS LOG - 2025-10-14 19:45:04 ===
Input file: /data/retarget/locomotion/raw/AMASS_SMPLXG/Eyes_Japan_Dataset/ichige/soccer-31-goal-ichige_stageii.npz
Output file: ../robot/ik_based/pkl/008521.pkl
Robot type: unitree_g1
Processing time: 89.70 seconds

STEP-BY-STEP TIMING:
  Step 1 - Load SMPLX:        6.12s
  Step 2 - Align FPS:         9.36s
  Step 3 - Init Retarget:     0.31s
  Step 4 - Init Visualization: 0.00s
  Step 5 - Process Frames:    73.60s (avg: 0.083s/frame)
  Step 6 - Convert Arrays:    0.00s
  Step 7 - Forward Kinematics: 0.17s
  Step 8 - Save Data:         0.00s
Status: SUCCESS
==================================================

=== SUCCESS LOG - 2025-10-14 19:46:51 ===
Input file: /data/retarget/locomotion/raw/AMASS_SMPLXG/Eyes_Japan_Dataset/ichige/walk-07-moonwalk-ichige_stageii.npz
Output file: ../robot/ik_based/pkl/008522.pkl
Robot type: unitree_g1
Processing time: 140.70 seconds

STEP-BY-STEP TIMING:
  Step 1 - Load SMPLX:        3.95s
  Step 2 - Align FPS:         15.95s
  Step 3 - Init Retarget:     0.29s
  Step 4 - Init Visualization: 0.00s
  Step 5 - Process Frames:    120.13s (avg: 0.064s/frame)
  Step 6 - Convert Arrays:    0.01s
  Step 7 - Forward Kinematics: 0.18s
  Step 8 - Save Data:         0.01s
Status: SUCCESS
==================================================

=== SUCCESS LOG - 2025-10-14 19:46:54 ===
Input file: /data/retarget/locomotion/raw/AMASS_SMPLXG/Eyes_Japan_Dataset/ichige/walk-29-look_down-ichige_stageii.npz
Output file: ../robot/ik_based/pkl/008523.pkl
Robot type: unitree_g1
Processing time: 123.34 seconds

STEP-BY-STEP TIMING:
  Step 1 - Load SMPLX:        3.72s
  Step 2 - Align FPS:         18.05s
  Step 3 - Init Retarget:     0.24s
  Step 4 - Init Visualization: 0.00s
  Step 5 - Process Frames:    101.25s (avg: 0.054s/frame)
  Step 6 - Convert Arrays:    0.01s
  Step 7 - Forward Kinematics: 0.03s
  Step 8 - Save Data:         0.01s
Status: SUCCESS
==================================================

=== SUCCESS LOG - 2025-10-14 19:46:58 ===
Input file: /data/retarget/locomotion/raw/AMASS_SMPLXG/Eyes_Japan_Dataset/ichige/walk-07-moonwalk-ichige_stageii.npz
Output file: ../robot/ik_based/pkl/008522.pkl
Robot type: unitree_g1
Processing time: 137.86 seconds

STEP-BY-STEP TIMING:
  Step 1 - Load SMPLX:        4.19s
  Step 2 - Align FPS:         16.40s
  Step 3 - Init Retarget:     0.39s
  Step 4 - Init Visualization: 0.00s
  Step 5 - Process Frames:    116.59s (avg: 0.062s/frame)
  Step 6 - Convert Arrays:    0.01s
  Step 7 - Forward Kinematics: 0.13s
  Step 8 - Save Data:         0.01s
Status: SUCCESS
==================================================

=== SUCCESS LOG - 2025-10-14 19:47:13 ===
Input file: /data/retarget/locomotion/raw/AMASS_SMPLXG/Eyes_Japan_Dataset/ichige/walk-29-look_down-ichige_stageii.npz
Output file: ../robot/ik_based/pkl/008523.pkl
Robot type: unitree_g1
Processing time: 127.74 seconds

STEP-BY-STEP TIMING:
  Step 1 - Load SMPLX:        5.13s
  Step 2 - Align FPS:         19.90s
  Step 3 - Init Retarget:     0.26s
  Step 4 - Init Visualization: 0.00s
  Step 5 - Process Frames:    100.95s (avg: 0.054s/frame)
  Step 6 - Convert Arrays:    0.01s
  Step 7 - Forward Kinematics: 1.46s
  Step 8 - Save Data:         0.01s
Status: SUCCESS
==================================================

=== SUCCESS LOG - 2025-10-14 19:48:25 ===
Input file: /data/retarget/locomotion/raw/AMASS_SMPLXG/Eyes_Japan_Dataset/kaiwa/accident-03-damage_head-kaiwa_stageii.npz
Output file: ../robot/ik_based/pkl/008526.pkl
Robot type: unitree_g1
Processing time: 90.31 seconds

STEP-BY-STEP TIMING:
  Step 1 - Load SMPLX:        3.42s
  Step 2 - Align FPS:         10.06s
  Step 3 - Init Retarget:     0.29s
  Step 4 - Init Visualization: 0.00s
  Step 5 - Process Frames:    76.29s (avg: 0.085s/frame)
  Step 6 - Convert Arrays:    0.00s
  Step 7 - Forward Kinematics: 0.13s
  Step 8 - Save Data:         0.00s
Status: SUCCESS
==================================================

=== SUCCESS LOG - 2025-10-14 19:48:36 ===
Input file: /data/retarget/locomotion/raw/AMASS_SMPLXG/Eyes_Japan_Dataset/kaiwa/accident-02-dodge_fast-kaiwa_stageii.npz
Output file: ../robot/ik_based/pkl/008525.pkl
Robot type: unitree_g1
Processing time: 103.52 seconds

STEP-BY-STEP TIMING:
  Step 1 - Load SMPLX:        3.66s
  Step 2 - Align FPS:         7.97s
  Step 3 - Init Retarget:     0.32s
  Step 4 - Init Visualization: 0.00s
  Step 5 - Process Frames:    91.40s (avg: 0.102s/frame)
  Step 6 - Convert Arrays:    0.00s
  Step 7 - Forward Kinematics: 0.03s
  Step 8 - Save Data:         0.05s
Status: SUCCESS
==================================================

=== SUCCESS LOG - 2025-10-14 19:48:36 ===
Input file: /data/retarget/locomotion/raw/AMASS_SMPLXG/Eyes_Japan_Dataset/kaiwa/accident-03-damage_head-kaiwa_stageii.npz
Output file: ../robot/ik_based/pkl/008526.pkl
Robot type: unitree_g1
Processing time: 82.29 seconds

STEP-BY-STEP TIMING:
  Step 1 - Load SMPLX:        2.55s
  Step 2 - Align FPS:         9.56s
  Step 3 - Init Retarget:     0.22s
  Step 4 - Init Visualization: 0.00s
  Step 5 - Process Frames:    69.57s (avg: 0.077s/frame)
  Step 6 - Convert Arrays:    0.00s
  Step 7 - Forward Kinematics: 0.26s
  Step 8 - Save Data:         0.00s
Status: SUCCESS
==================================================

=== SUCCESS LOG - 2025-10-14 19:48:37 ===
Input file: /data/retarget/locomotion/raw/AMASS_SMPLXG/Eyes_Japan_Dataset/kaiwa/accident-02-dodge_fast-kaiwa_stageii.npz
Output file: ../robot/ik_based/pkl/008525.pkl
Robot type: unitree_g1
Processing time: 97.87 seconds

STEP-BY-STEP TIMING:
  Step 1 - Load SMPLX:        2.65s
  Step 2 - Align FPS:         10.53s
  Step 3 - Init Retarget:     0.28s
  Step 4 - Init Visualization: 0.00s
  Step 5 - Process Frames:    84.33s (avg: 0.094s/frame)
  Step 6 - Convert Arrays:    0.00s
  Step 7 - Forward Kinematics: 0.03s
  Step 8 - Save Data:         0.00s
Status: SUCCESS
==================================================

=== SUCCESS LOG - 2025-10-14 19:49:48 ===
Input file: /data/retarget/locomotion/raw/AMASS_SMPLXG/Eyes_Japan_Dataset/kaiwa/accident-05-damage_right_arm-kaiwa_stageii.npz
Output file: ../robot/ik_based/pkl/008528.pkl
Robot type: unitree_g1
Processing time: 81.73 seconds

STEP-BY-STEP TIMING:
  Step 1 - Load SMPLX:        3.15s
  Step 2 - Align FPS:         7.73s
  Step 3 - Init Retarget:     0.26s
  Step 4 - Init Visualization: 0.00s
  Step 5 - Process Frames:    70.24s (avg: 0.078s/frame)
  Step 6 - Convert Arrays:    0.00s
  Step 7 - Forward Kinematics: 0.20s
  Step 8 - Save Data:         0.01s
Status: SUCCESS
==================================================

=== SUCCESS LOG - 2025-10-14 19:50:02 ===
Input file: /data/retarget/locomotion/raw/AMASS_SMPLXG/Eyes_Japan_Dataset/kaiwa/accident-07-damage_left_arm-kaiwa_stageii.npz
Output file: ../robot/ik_based/pkl/008529.pkl
Robot type: unitree_g1
Processing time: 85.95 seconds

STEP-BY-STEP TIMING:
  Step 1 - Load SMPLX:        3.50s
  Step 2 - Align FPS:         6.51s
  Step 3 - Init Retarget:     0.33s
  Step 4 - Init Visualization: 0.00s
  Step 5 - Process Frames:    75.30s (avg: 0.084s/frame)
  Step 6 - Convert Arrays:    0.00s
  Step 7 - Forward Kinematics: 0.17s
  Step 8 - Save Data:         0.01s
Status: SUCCESS
==================================================

=== SUCCESS LOG - 2025-10-14 19:50:04 ===
Input file: /data/retarget/locomotion/raw/AMASS_SMPLXG/Eyes_Japan_Dataset/kaiwa/accident-08-damage_rightfoot-kaiwa_stageii.npz
Output file: ../robot/ik_based/pkl/008530.pkl
Robot type: unitree_g1
Processing time: 86.02 seconds

STEP-BY-STEP TIMING:
  Step 1 - Load SMPLX:        7.44s
  Step 2 - Align FPS:         10.41s
  Step 3 - Init Retarget:     0.29s
  Step 4 - Init Visualization: 0.00s
  Step 5 - Process Frames:    67.68s (avg: 0.075s/frame)
  Step 6 - Convert Arrays:    0.00s
  Step 7 - Forward Kinematics: 0.02s
  Step 8 - Save Data:         0.00s
Status: SUCCESS
==================================================

=== SUCCESS LOG - 2025-10-14 19:50:08 ===
Input file: /data/retarget/locomotion/raw/AMASS_SMPLXG/Eyes_Japan_Dataset/kaiwa/accident-07-damage_left_arm-kaiwa_stageii.npz
Output file: ../robot/ik_based/pkl/008529.pkl
Robot type: unitree_g1
Processing time: 91.10 seconds

STEP-BY-STEP TIMING:
  Step 1 - Load SMPLX:        7.87s
  Step 2 - Align FPS:         8.67s
  Step 3 - Init Retarget:     0.31s
  Step 4 - Init Visualization: 0.00s
  Step 5 - Process Frames:    74.07s (avg: 0.082s/frame)
  Step 6 - Convert Arrays:    0.00s
  Step 7 - Forward Kinematics: 0.08s
  Step 8 - Save Data:         0.00s
Status: SUCCESS
==================================================

=== SUCCESS LOG - 2025-10-14 19:51:12 ===
Input file: /data/retarget/locomotion/raw/AMASS_SMPLXG/Eyes_Japan_Dataset/kaiwa/accident-09-damage_leftfoot-kaiwa_stageii.npz
Output file: ../robot/ik_based/pkl/008531.pkl
Robot type: unitree_g1
Processing time: 83.02 seconds

STEP-BY-STEP TIMING:
  Step 1 - Load SMPLX:        2.91s
  Step 2 - Align FPS:         8.37s
  Step 3 - Init Retarget:     0.28s
  Step 4 - Init Visualization: 0.00s
  Step 5 - Process Frames:    71.02s (avg: 0.079s/frame)
  Step 6 - Convert Arrays:    0.00s
  Step 7 - Forward Kinematics: 0.29s
  Step 8 - Save Data:         0.01s
Status: SUCCESS
==================================================

=== SUCCESS LOG - 2025-10-14 19:51:29 ===
Input file: /data/retarget/locomotion/raw/AMASS_SMPLXG/Eyes_Japan_Dataset/kaiwa/accident-09-damage_leftfoot-kaiwa_stageii.npz
Output file: ../robot/ik_based/pkl/008531.pkl
Robot type: unitree_g1
Processing time: 85.85 seconds

STEP-BY-STEP TIMING:
  Step 1 - Load SMPLX:        8.18s
  Step 2 - Align FPS:         10.11s
  Step 3 - Init Retarget:     0.27s
  Step 4 - Init Visualization: 0.00s
  Step 5 - Process Frames:    67.02s (avg: 0.074s/frame)
  Step 6 - Convert Arrays:    0.00s
  Step 7 - Forward Kinematics: 0.14s
  Step 8 - Save Data:         0.01s
Status: SUCCESS
==================================================

=== SUCCESS LOG - 2025-10-14 19:51:45 ===
Input file: /data/retarget/locomotion/raw/AMASS_SMPLXG/Eyes_Japan_Dataset/kaiwa/accident-10-spasm-kaiwa_stageii.npz
Output file: ../robot/ik_based/pkl/008532.pkl
Robot type: unitree_g1
Processing time: 100.69 seconds

STEP-BY-STEP TIMING:
  Step 1 - Load SMPLX:        11.18s
  Step 2 - Align FPS:         11.23s
  Step 3 - Init Retarget:     0.28s
  Step 4 - Init Visualization: 0.00s
  Step 5 - Process Frames:    77.72s (avg: 0.086s/frame)
  Step 6 - Convert Arrays:    0.00s
  Step 7 - Forward Kinematics: 0.12s
  Step 8 - Save Data:         0.01s
Status: SUCCESS
==================================================

=== SUCCESS LOG - 2025-10-14 19:51:49 ===
Input file: /data/retarget/locomotion/raw/AMASS_SMPLXG/Eyes_Japan_Dataset/kaiwa/accident-10-spasm-kaiwa_stageii.npz
Output file: ../robot/ik_based/pkl/008532.pkl
Robot type: unitree_g1
Processing time: 99.50 seconds

STEP-BY-STEP TIMING:
  Step 1 - Load SMPLX:        9.32s
  Step 2 - Align FPS:         9.10s
  Step 3 - Init Retarget:     0.32s
  Step 4 - Init Visualization: 0.00s
  Step 5 - Process Frames:    80.47s (avg: 0.089s/frame)
  Step 6 - Convert Arrays:    0.00s
  Step 7 - Forward Kinematics: 0.15s
  Step 8 - Save Data:         0.01s
Status: SUCCESS
==================================================

=== SUCCESS LOG - 2025-10-14 19:52:18 ===
Input file: /data/retarget/locomotion/raw/AMASS_SMPLXG/Eyes_Japan_Dataset/kaiwa/accident-12-twist_foot-kaiwa_stageii.npz
Output file: ../robot/ik_based/pkl/008533.pkl
Robot type: unitree_g1
Processing time: 65.96 seconds

STEP-BY-STEP TIMING:
  Step 1 - Load SMPLX:        2.81s
  Step 2 - Align FPS:         9.47s
  Step 3 - Init Retarget:     0.26s
  Step 4 - Init Visualization: 0.00s
  Step 5 - Process Frames:    53.09s (avg: 0.059s/frame)
  Step 6 - Convert Arrays:    0.00s
  Step 7 - Forward Kinematics: 0.15s
  Step 8 - Save Data:         0.04s
Status: SUCCESS
==================================================

=== SUCCESS LOG - 2025-10-14 19:52:39 ===
Input file: /data/retarget/locomotion/raw/AMASS_SMPLXG/Eyes_Japan_Dataset/kaiwa/accident-14-dodge_turn_down-kaiwa_stageii.npz
Output file: ../robot/ik_based/pkl/008535.pkl
Robot type: unitree_g1
Processing time: 49.17 seconds

STEP-BY-STEP TIMING:
  Step 1 - Load SMPLX:        2.31s
  Step 2 - Align FPS:         4.25s
  Step 3 - Init Retarget:     0.23s
  Step 4 - Init Visualization: 0.00s
  Step 5 - Process Frames:    41.98s (avg: 0.084s/frame)
  Step 6 - Convert Arrays:    0.00s
  Step 7 - Forward Kinematics: 0.21s
  Step 8 - Save Data:         0.01s
Status: SUCCESS
==================================================

=== SUCCESS LOG - 2025-10-14 19:52:41 ===
Input file: /data/retarget/locomotion/raw/AMASS_SMPLXG/Eyes_Japan_Dataset/kaiwa/accident-14-dodge_turn_down-kaiwa_stageii.npz
Output file: ../robot/ik_based/pkl/008535.pkl
Robot type: unitree_g1
Processing time: 54.69 seconds

STEP-BY-STEP TIMING:
  Step 1 - Load SMPLX:        2.29s
  Step 2 - Align FPS:         4.50s
  Step 3 - Init Retarget:     0.26s
  Step 4 - Init Visualization: 0.00s
  Step 5 - Process Frames:    47.38s (avg: 0.095s/frame)
  Step 6 - Convert Arrays:    0.00s
  Step 7 - Forward Kinematics: 0.13s
  Step 8 - Save Data:         0.00s
Status: SUCCESS
==================================================

=== SUCCESS LOG - 2025-10-14 19:52:55 ===
Input file: /data/retarget/locomotion/raw/AMASS_SMPLXG/Eyes_Japan_Dataset/kaiwa/accident-13-damage_back-kaiwa_stageii.npz
Output file: ../robot/ik_based/pkl/008534.pkl
Robot type: unitree_g1
Processing time: 85.47 seconds

STEP-BY-STEP TIMING:
  Step 1 - Load SMPLX:        3.39s
  Step 2 - Align FPS:         8.94s
  Step 3 - Init Retarget:     0.33s
  Step 4 - Init Visualization: 0.00s
  Step 5 - Process Frames:    72.59s (avg: 0.081s/frame)
  Step 6 - Convert Arrays:    0.00s
  Step 7 - Forward Kinematics: 0.11s
  Step 8 - Save Data:         0.01s
Status: SUCCESS
==================================================

=== ERROR LOG - 2025-10-14 19:52:58 ===
Input file: /data/retarget/locomotion/raw/AMASS_SMPLXG/Eyes_Japan_Dataset/kaiwa/female_stagei.npz
Output file: ../robot/ik_based/pkl/008538.pkl
Robot type: unitree_g1
Processing time: 1.68 seconds
Error message: 'pose_body is not a file in the archive'
Error type: KeyError
==================================================

=== SUCCESS LOG - 2025-10-14 19:53:22 ===
Input file: /data/retarget/locomotion/raw/AMASS_SMPLXG/Eyes_Japan_Dataset/kaiwa/audience-01-standing_set_1-kaiwa_stageii.npz
Output file: ../robot/ik_based/pkl/008536.pkl
Robot type: unitree_g1
Processing time: 62.80 seconds

STEP-BY-STEP TIMING:
  Step 1 - Load SMPLX:        2.80s
  Step 2 - Align FPS:         8.52s
  Step 3 - Init Retarget:     0.21s
  Step 4 - Init Visualization: 0.00s
  Step 5 - Process Frames:    51.00s (avg: 0.057s/frame)
  Step 6 - Convert Arrays:    0.00s
  Step 7 - Forward Kinematics: 0.14s
  Step 8 - Save Data:         0.01s
Status: SUCCESS
==================================================

=== ERROR LOG - 2025-10-14 19:53:24 ===
Input file: /data/retarget/locomotion/raw/AMASS_SMPLXG/Eyes_Japan_Dataset/kaiwa/female_stagei.npz
Output file: ../robot/ik_based/pkl/008538.pkl
Robot type: unitree_g1
Processing time: 1.83 seconds
Error message: 'pose_body is not a file in the archive'
Error type: KeyError
==================================================

=== SUCCESS LOG - 2025-10-14 19:54:05 ===
Input file: /data/retarget/locomotion/raw/AMASS_SMPLXG/Eyes_Japan_Dataset/kaiwa/gesture_etc-01-set_1-kaiwa_stageii.npz
Output file: ../robot/ik_based/pkl/008539.pkl
Robot type: unitree_g1
Processing time: 67.05 seconds

STEP-BY-STEP TIMING:
  Step 1 - Load SMPLX:        2.53s
  Step 2 - Align FPS:         10.61s
  Step 3 - Init Retarget:     0.24s
  Step 4 - Init Visualization: 0.00s
  Step 5 - Process Frames:    53.25s (avg: 0.059s/frame)
  Step 6 - Convert Arrays:    0.00s
  Step 7 - Forward Kinematics: 0.26s
  Step 8 - Save Data:         0.01s
Status: SUCCESS
==================================================

=== SUCCESS LOG - 2025-10-14 19:54:08 ===
Input file: /data/retarget/locomotion/raw/AMASS_SMPLXG/Eyes_Japan_Dataset/kaiwa/audience-02-standing_set_2-kaiwa_stageii.npz
Output file: ../robot/ik_based/pkl/008537.pkl
Robot type: unitree_g1
Processing time: 86.98 seconds

STEP-BY-STEP TIMING:
  Step 1 - Load SMPLX:        2.84s
  Step 2 - Align FPS:         9.37s
  Step 3 - Init Retarget:     0.24s
  Step 4 - Init Visualization: 0.00s
  Step 5 - Process Frames:    74.45s (avg: 0.083s/frame)
  Step 6 - Convert Arrays:    0.00s
  Step 7 - Forward Kinematics: 0.03s
  Step 8 - Save Data:         0.00s
Status: SUCCESS
==================================================

=== SUCCESS LOG - 2025-10-14 19:54:09 ===
Input file: /data/retarget/locomotion/raw/AMASS_SMPLXG/Eyes_Japan_Dataset/kaiwa/audience-02-standing_set_2-kaiwa_stageii.npz
Output file: ../robot/ik_based/pkl/008537.pkl
Robot type: unitree_g1
Processing time: 90.13 seconds

STEP-BY-STEP TIMING:
  Step 1 - Load SMPLX:        3.09s
  Step 2 - Align FPS:         7.91s
  Step 3 - Init Retarget:     0.35s
  Step 4 - Init Visualization: 0.00s
  Step 5 - Process Frames:    78.22s (avg: 0.087s/frame)
  Step 6 - Convert Arrays:    0.00s
  Step 7 - Forward Kinematics: 0.38s
  Step 8 - Save Data:         0.01s
Status: SUCCESS
==================================================

=== SUCCESS LOG - 2025-10-14 19:54:24 ===
Input file: /data/retarget/locomotion/raw/AMASS_SMPLXG/Eyes_Japan_Dataset/kaiwa/gesture_etc-01-set_1-kaiwa_stageii.npz
Output file: ../robot/ik_based/pkl/008539.pkl
Robot type: unitree_g1
Processing time: 60.20 seconds

STEP-BY-STEP TIMING:
  Step 1 - Load SMPLX:        2.93s
  Step 2 - Align FPS:         8.06s
  Step 3 - Init Retarget:     0.28s
  Step 4 - Init Visualization: 0.00s
  Step 5 - Process Frames:    48.67s (avg: 0.054s/frame)
  Step 6 - Convert Arrays:    0.00s
  Step 7 - Forward Kinematics: 0.13s
  Step 8 - Save Data:         0.00s
Status: SUCCESS
==================================================

=== SUCCESS LOG - 2025-10-14 19:55:11 ===
Input file: /data/retarget/locomotion/raw/AMASS_SMPLXG/Eyes_Japan_Dataset/kaiwa/gesture_etc-05-touch_nose-kaiwa_stageii.npz
Output file: ../robot/ik_based/pkl/008541.pkl
Robot type: unitree_g1
Processing time: 61.44 seconds

STEP-BY-STEP TIMING:
  Step 1 - Load SMPLX:        3.06s
  Step 2 - Align FPS:         8.18s
  Step 3 - Init Retarget:     0.22s
  Step 4 - Init Visualization: 0.00s
  Step 5 - Process Frames:    49.66s (avg: 0.055s/frame)
  Step 6 - Convert Arrays:    0.00s
  Step 7 - Forward Kinematics: 0.16s
  Step 8 - Save Data:         0.01s
Status: SUCCESS
==================================================

=== SUCCESS LOG - 2025-10-14 19:55:15 ===
Input file: /data/retarget/locomotion/raw/AMASS_SMPLXG/Eyes_Japan_Dataset/kaiwa/gesture_etc-05-touch_nose-kaiwa_stageii.npz
Output file: ../robot/ik_based/pkl/008541.pkl
Robot type: unitree_g1
Processing time: 69.54 seconds

STEP-BY-STEP TIMING:
  Step 1 - Load SMPLX:        3.62s
  Step 2 - Align FPS:         5.20s
  Step 3 - Init Retarget:     0.62s
  Step 4 - Init Visualization: 0.00s
  Step 5 - Process Frames:    59.83s (avg: 0.066s/frame)
  Step 6 - Convert Arrays:    0.00s
  Step 7 - Forward Kinematics: 0.15s
  Step 8 - Save Data:         0.00s
Status: SUCCESS
==================================================

=== SUCCESS LOG - 2025-10-14 19:55:15 ===
Input file: /data/retarget/locomotion/raw/AMASS_SMPLXG/Eyes_Japan_Dataset/kaiwa/gesture_etc-06-jiggle_knee-kaiwa_stageii.npz
Output file: ../robot/ik_based/pkl/008542.pkl
Robot type: unitree_g1
Processing time: 66.50 seconds

STEP-BY-STEP TIMING:
  Step 1 - Load SMPLX:        5.21s
  Step 2 - Align FPS:         9.20s
  Step 3 - Init Retarget:     0.26s
  Step 4 - Init Visualization: 0.00s
  Step 5 - Process Frames:    51.67s (avg: 0.057s/frame)
  Step 6 - Convert Arrays:    0.00s
  Step 7 - Forward Kinematics: 0.02s
  Step 8 - Save Data:         0.00s
Status: SUCCESS
==================================================

=== SUCCESS LOG - 2025-10-14 19:55:22 ===
Input file: /data/retarget/locomotion/raw/AMASS_SMPLXG/Eyes_Japan_Dataset/kaiwa/gesture_etc-06-jiggle_knee-kaiwa_stageii.npz
Output file: ../robot/ik_based/pkl/008542.pkl
Robot type: unitree_g1
Processing time: 57.52 seconds

STEP-BY-STEP TIMING:
  Step 1 - Load SMPLX:        3.13s
  Step 2 - Align FPS:         8.72s
  Step 3 - Init Retarget:     0.21s
  Step 4 - Init Visualization: 0.00s
  Step 5 - Process Frames:    44.02s (avg: 0.049s/frame)
  Step 6 - Convert Arrays:    0.00s
  Step 7 - Forward Kinematics: 0.03s
  Step 8 - Save Data:         0.00s
Status: SUCCESS
==================================================

=== SUCCESS LOG - 2025-10-14 19:56:36 ===
Input file: /data/retarget/locomotion/raw/AMASS_SMPLXG/Eyes_Japan_Dataset/kaiwa/gesture_etc-07-over_stretch-kaiwa_stageii.npz
Output file: ../robot/ik_based/pkl/008543.pkl
Robot type: unitree_g1
Processing time: 83.90 seconds

STEP-BY-STEP TIMING:
  Step 1 - Load SMPLX:        3.07s
  Step 2 - Align FPS:         7.61s
  Step 3 - Init Retarget:     0.18s
  Step 4 - Init Visualization: 0.00s
  Step 5 - Process Frames:    72.61s (avg: 0.081s/frame)
  Step 6 - Convert Arrays:    0.00s
  Step 7 - Forward Kinematics: 0.26s
  Step 8 - Save Data:         0.01s
Status: SUCCESS
==================================================

=== SUCCESS LOG - 2025-10-14 19:56:38 ===
Input file: /data/retarget/locomotion/raw/AMASS_SMPLXG/Eyes_Japan_Dataset/kaiwa/gesture_etc-09-scratch-kaiwa_stageii.npz
Output file: ../robot/ik_based/pkl/008544.pkl
Robot type: unitree_g1
Processing time: 74.66 seconds

STEP-BY-STEP TIMING:
  Step 1 - Load SMPLX:        3.56s
  Step 2 - Align FPS:         9.20s
  Step 3 - Init Retarget:     0.21s
  Step 4 - Init Visualization: 0.00s
  Step 5 - Process Frames:    61.63s (avg: 0.068s/frame)
  Step 6 - Convert Arrays:    0.00s
  Step 7 - Forward Kinematics: 0.02s
  Step 8 - Save Data:         0.00s
Status: SUCCESS
==================================================

=== SUCCESS LOG - 2025-10-14 19:56:41 ===
Input file: /data/retarget/locomotion/raw/AMASS_SMPLXG/Eyes_Japan_Dataset/kaiwa/gesture_etc-09-scratch-kaiwa_stageii.npz
Output file: ../robot/ik_based/pkl/008544.pkl
Robot type: unitree_g1
Processing time: 85.36 seconds

STEP-BY-STEP TIMING:
  Step 1 - Load SMPLX:        2.35s
  Step 2 - Align FPS:         13.29s
  Step 3 - Init Retarget:     0.25s
  Step 4 - Init Visualization: 0.00s
  Step 5 - Process Frames:    69.16s (avg: 0.077s/frame)
  Step 6 - Convert Arrays:    0.00s
  Step 7 - Forward Kinematics: 0.16s
  Step 8 - Save Data:         0.00s
Status: SUCCESS
==================================================

=== SUCCESS LOG - 2025-10-14 19:56:45 ===
Input file: /data/retarget/locomotion/raw/AMASS_SMPLXG/Eyes_Japan_Dataset/kaiwa/gesture_etc-07-over_stretch-kaiwa_stageii.npz
Output file: ../robot/ik_based/pkl/008543.pkl
Robot type: unitree_g1
Processing time: 89.16 seconds

STEP-BY-STEP TIMING:
  Step 1 - Load SMPLX:        2.39s
  Step 2 - Align FPS:         11.70s
  Step 3 - Init Retarget:     0.90s
  Step 4 - Init Visualization: 0.00s
  Step 5 - Process Frames:    74.09s (avg: 0.082s/frame)
  Step 6 - Convert Arrays:    0.00s
  Step 7 - Forward Kinematics: 0.02s
  Step 8 - Save Data:         0.03s
Status: SUCCESS
==================================================

=== SUCCESS LOG - 2025-10-14 19:57:57 ===
Input file: /data/retarget/locomotion/raw/AMASS_SMPLXG/Eyes_Japan_Dataset/kaiwa/gesture_etc-22-mobile_receive-kaiwa_stageii.npz
Output file: ../robot/ik_based/pkl/008547.pkl
Robot type: unitree_g1
Processing time: 78.51 seconds

STEP-BY-STEP TIMING:
  Step 1 - Load SMPLX:        2.30s
  Step 2 - Align FPS:         10.84s
  Step 3 - Init Retarget:     0.28s
  Step 4 - Init Visualization: 0.00s
  Step 5 - Process Frames:    64.76s (avg: 0.072s/frame)
  Step 6 - Convert Arrays:    0.00s
  Step 7 - Forward Kinematics: 0.11s
  Step 8 - Save Data:         0.01s
Status: SUCCESS
==================================================

=== SUCCESS LOG - 2025-10-14 19:57:59 ===
Input file: /data/retarget/locomotion/raw/AMASS_SMPLXG/Eyes_Japan_Dataset/kaiwa/gesture_etc-18-eat-kaiwa_stageii.npz
Output file: ../robot/ik_based/pkl/008546.pkl
Robot type: unitree_g1
Processing time: 82.47 seconds

STEP-BY-STEP TIMING:
  Step 1 - Load SMPLX:        3.09s
  Step 2 - Align FPS:         9.19s
  Step 3 - Init Retarget:     0.35s
  Step 4 - Init Visualization: 0.00s
  Step 5 - Process Frames:    69.76s (avg: 0.078s/frame)
  Step 6 - Convert Arrays:    0.00s
  Step 7 - Forward Kinematics: 0.03s
  Step 8 - Save Data:         0.00s
Status: SUCCESS
==================================================

=== SUCCESS LOG - 2025-10-14 19:58:15 ===
Input file: /data/retarget/locomotion/raw/AMASS_SMPLXG/Eyes_Japan_Dataset/kaiwa/gesture_etc-22-mobile_receive-kaiwa_stageii.npz
Output file: ../robot/ik_based/pkl/008547.pkl
Robot type: unitree_g1
Processing time: 89.52 seconds

STEP-BY-STEP TIMING:
  Step 1 - Load SMPLX:        3.87s
  Step 2 - Align FPS:         9.28s
  Step 3 - Init Retarget:     0.24s
  Step 4 - Init Visualization: 0.00s
  Step 5 - Process Frames:    75.85s (avg: 0.084s/frame)
  Step 6 - Convert Arrays:    0.01s
  Step 7 - Forward Kinematics: 0.16s
  Step 8 - Save Data:         0.02s
Status: SUCCESS
==================================================

=== SUCCESS LOG - 2025-10-14 19:58:17 ===
Input file: /data/retarget/locomotion/raw/AMASS_SMPLXG/Eyes_Japan_Dataset/kaiwa/gesture_etc-18-eat-kaiwa_stageii.npz
Output file: ../robot/ik_based/pkl/008546.pkl
Robot type: unitree_g1
Processing time: 95.09 seconds

STEP-BY-STEP TIMING:
  Step 1 - Load SMPLX:        3.50s
  Step 2 - Align FPS:         6.70s
  Step 3 - Init Retarget:     0.24s
  Step 4 - Init Visualization: 0.00s
  Step 5 - Process Frames:    84.53s (avg: 0.094s/frame)
  Step 6 - Convert Arrays:    0.00s
  Step 7 - Forward Kinematics: 0.04s
  Step 8 - Save Data:         0.01s
Status: SUCCESS
==================================================

=== SUCCESS LOG - 2025-10-14 19:59:17 ===
Input file: /data/retarget/locomotion/raw/AMASS_SMPLXG/Eyes_Japan_Dataset/kaiwa/gesture_etc-25-magic-kaiwa_stageii.npz
Output file: ../robot/ik_based/pkl/008550.pkl
Robot type: unitree_g1
Processing time: 77.20 seconds

STEP-BY-STEP TIMING:
  Step 1 - Load SMPLX:        8.99s
  Step 2 - Align FPS:         13.80s
  Step 3 - Init Retarget:     0.26s
  Step 4 - Init Visualization: 0.00s
  Step 5 - Process Frames:    53.88s (avg: 0.060s/frame)
  Step 6 - Convert Arrays:    0.00s
  Step 7 - Forward Kinematics: 0.14s
  Step 8 - Save Data:         0.00s
Status: SUCCESS
==================================================

=== SUCCESS LOG - 2025-10-14 19:59:36 ===
Input file: /data/retarget/locomotion/raw/AMASS_SMPLXG/Eyes_Japan_Dataset/kaiwa/gesture_etc-25-magic-kaiwa_stageii.npz
Output file: ../robot/ik_based/pkl/008550.pkl
Robot type: unitree_g1
Processing time: 77.47 seconds

STEP-BY-STEP TIMING:
  Step 1 - Load SMPLX:        4.82s
  Step 2 - Align FPS:         12.31s
  Step 3 - Init Retarget:     0.29s
  Step 4 - Init Visualization: 0.00s
  Step 5 - Process Frames:    59.66s (avg: 0.066s/frame)
  Step 6 - Convert Arrays:    0.00s
  Step 7 - Forward Kinematics: 0.20s
  Step 8 - Save Data:         0.01s
Status: SUCCESS
==================================================

=== SUCCESS LOG - 2025-10-14 19:59:49 ===
Input file: /data/retarget/locomotion/raw/AMASS_SMPLXG/Eyes_Japan_Dataset/kaiwa/gesture_etc-24-matrix-kaiwa_stageii.npz
Output file: ../robot/ik_based/pkl/008549.pkl
Robot type: unitree_g1
Processing time: 111.31 seconds

STEP-BY-STEP TIMING:
  Step 1 - Load SMPLX:        6.26s
  Step 2 - Align FPS:         12.71s
  Step 3 - Init Retarget:     0.46s
  Step 4 - Init Visualization: 0.00s
  Step 5 - Process Frames:    91.59s (avg: 0.102s/frame)
  Step 6 - Convert Arrays:    0.00s
  Step 7 - Forward Kinematics: 0.14s
  Step 8 - Save Data:         0.01s
Status: SUCCESS
==================================================

=== SUCCESS LOG - 2025-10-14 20:00:16 ===
Input file: /data/retarget/locomotion/raw/AMASS_SMPLXG/Eyes_Japan_Dataset/kaiwa/gesture_etc-24-matrix-kaiwa_stageii.npz
Output file: ../robot/ik_based/pkl/008549.pkl
Robot type: unitree_g1
Processing time: 119.81 seconds

STEP-BY-STEP TIMING:
  Step 1 - Load SMPLX:        5.72s
  Step 2 - Align FPS:         11.54s
  Step 3 - Init Retarget:     1.49s
  Step 4 - Init Visualization: 0.00s
  Step 5 - Process Frames:    100.70s (avg: 0.112s/frame)
  Step 6 - Convert Arrays:    0.00s
  Step 7 - Forward Kinematics: 0.17s
  Step 8 - Save Data:         0.01s
Status: SUCCESS
==================================================

=== SUCCESS LOG - 2025-10-14 20:00:28 ===
Input file: /data/retarget/locomotion/raw/AMASS_SMPLXG/Eyes_Japan_Dataset/kaiwa/gesture_etc-29-pantomime-kaiwa_stageii.npz
Output file: ../robot/ik_based/pkl/008551.pkl
Robot type: unitree_g1
Processing time: 70.42 seconds

STEP-BY-STEP TIMING:
  Step 1 - Load SMPLX:        3.03s
  Step 2 - Align FPS:         9.90s
  Step 3 - Init Retarget:     0.27s
  Step 4 - Init Visualization: 0.00s
  Step 5 - Process Frames:    56.93s (avg: 0.063s/frame)
  Step 6 - Convert Arrays:    0.00s
  Step 7 - Forward Kinematics: 0.16s
  Step 8 - Save Data:         0.01s
Status: SUCCESS
==================================================

=== SUCCESS LOG - 2025-10-14 20:00:48 ===
Input file: /data/retarget/locomotion/raw/AMASS_SMPLXG/Eyes_Japan_Dataset/kaiwa/gesture_etc-30-fxxk-kaiwa_stageii.npz
Output file: ../robot/ik_based/pkl/008552.pkl
Robot type: unitree_g1
Processing time: 71.31 seconds

STEP-BY-STEP TIMING:
  Step 1 - Load SMPLX:        2.94s
  Step 2 - Align FPS:         9.81s
  Step 3 - Init Retarget:     0.25s
  Step 4 - Init Visualization: 0.00s
  Step 5 - Process Frames:    58.04s (avg: 0.064s/frame)
  Step 6 - Convert Arrays:    0.00s
  Step 7 - Forward Kinematics: 0.14s
  Step 8 - Save Data:         0.01s
Status: SUCCESS
==================================================

=== SUCCESS LOG - 2025-10-14 20:00:59 ===
Input file: /data/retarget/locomotion/raw/AMASS_SMPLXG/Eyes_Japan_Dataset/kaiwa/gesture_etc-30-fxxk-kaiwa_stageii.npz
Output file: ../robot/ik_based/pkl/008552.pkl
Robot type: unitree_g1
Processing time: 69.07 seconds

STEP-BY-STEP TIMING:
  Step 1 - Load SMPLX:        2.96s
  Step 2 - Align FPS:         9.02s
  Step 3 - Init Retarget:     0.35s
  Step 4 - Init Visualization: 0.00s
  Step 5 - Process Frames:    56.40s (avg: 0.063s/frame)
  Step 6 - Convert Arrays:    0.00s
  Step 7 - Forward Kinematics: 0.16s
  Step 8 - Save Data:         0.01s
Status: SUCCESS
==================================================

=== SUCCESS LOG - 2025-10-14 20:01:20 ===
Input file: /data/retarget/locomotion/raw/AMASS_SMPLXG/Eyes_Japan_Dataset/kaiwa/gesture_etc-31-ok-kaiwa_stageii.npz
Output file: ../robot/ik_based/pkl/008553.pkl
Robot type: unitree_g1
Processing time: 63.25 seconds

STEP-BY-STEP TIMING:
  Step 1 - Load SMPLX:        3.05s
  Step 2 - Align FPS:         8.18s
  Step 3 - Init Retarget:     0.33s
  Step 4 - Init Visualization: 0.00s
  Step 5 - Process Frames:    51.40s (avg: 0.057s/frame)
  Step 6 - Convert Arrays:    0.01s
  Step 7 - Forward Kinematics: 0.16s
  Step 8 - Save Data:         0.01s
Status: SUCCESS
==================================================

=== SUCCESS LOG - 2025-10-14 20:01:32 ===
Input file: /data/retarget/locomotion/raw/AMASS_SMPLXG/Eyes_Japan_Dataset/kaiwa/gesture_etc-31-ok-kaiwa_stageii.npz
Output file: ../robot/ik_based/pkl/008553.pkl
Robot type: unitree_g1
Processing time: 63.51 seconds

STEP-BY-STEP TIMING:
  Step 1 - Load SMPLX:        2.98s
  Step 2 - Align FPS:         9.02s
  Step 3 - Init Retarget:     0.26s
  Step 4 - Init Visualization: 0.00s
  Step 5 - Process Frames:    50.96s (avg: 0.057s/frame)
  Step 6 - Convert Arrays:    0.00s
  Step 7 - Forward Kinematics: 0.14s
  Step 8 - Save Data:         0.01s
Status: SUCCESS
==================================================

=== SUCCESS LOG - 2025-10-14 20:02:20 ===
Input file: /data/retarget/locomotion/raw/AMASS_SMPLXG/Eyes_Japan_Dataset/kaiwa/gesture_etc-32-no-kaiwa_stageii.npz
Output file: ../robot/ik_based/pkl/008554.pkl
Robot type: unitree_g1
Processing time: 91.91 seconds

STEP-BY-STEP TIMING:
  Step 1 - Load SMPLX:        2.86s
  Step 2 - Align FPS:         8.96s
  Step 3 - Init Retarget:     0.24s
  Step 4 - Init Visualization: 0.00s
  Step 5 - Process Frames:    79.48s (avg: 0.088s/frame)
  Step 6 - Convert Arrays:    0.00s
  Step 7 - Forward Kinematics: 0.23s
  Step 8 - Save Data:         0.01s
Status: SUCCESS
==================================================

=== SUCCESS LOG - 2025-10-14 20:02:32 ===
Input file: /data/retarget/locomotion/raw/AMASS_SMPLXG/Eyes_Japan_Dataset/kaiwa/gesture_etc-32-no-kaiwa_stageii.npz
Output file: ../robot/ik_based/pkl/008554.pkl
Robot type: unitree_g1
Processing time: 92.33 seconds

STEP-BY-STEP TIMING:
  Step 1 - Load SMPLX:        2.95s
  Step 2 - Align FPS:         10.10s
  Step 3 - Init Retarget:     0.26s
  Step 4 - Init Visualization: 0.00s
  Step 5 - Process Frames:    78.64s (avg: 0.087s/frame)
  Step 6 - Convert Arrays:    0.00s
  Step 7 - Forward Kinematics: 0.18s
  Step 8 - Save Data:         0.01s
Status: SUCCESS
==================================================

=== SUCCESS LOG - 2025-10-14 20:02:54 ===
Input file: /data/retarget/locomotion/raw/AMASS_SMPLXG/Eyes_Japan_Dataset/kaiwa/gesture_etc-33-watch_here-kaiwa_stageii.npz
Output file: ../robot/ik_based/pkl/008555.pkl
Robot type: unitree_g1
Processing time: 93.20 seconds

STEP-BY-STEP TIMING:
  Step 1 - Load SMPLX:        3.19s
  Step 2 - Align FPS:         8.08s
  Step 3 - Init Retarget:     0.40s
  Step 4 - Init Visualization: 0.00s
  Step 5 - Process Frames:    81.31s (avg: 0.090s/frame)
  Step 6 - Convert Arrays:    0.00s
  Step 7 - Forward Kinematics: 0.12s
  Step 8 - Save Data:         0.00s
Status: SUCCESS
==================================================

=== SUCCESS LOG - 2025-10-14 20:03:07 ===
Input file: /data/retarget/locomotion/raw/AMASS_SMPLXG/Eyes_Japan_Dataset/kaiwa/gesture_etc-33-watch_here-kaiwa_stageii.npz
Output file: ../robot/ik_based/pkl/008555.pkl
Robot type: unitree_g1
Processing time: 94.67 seconds

STEP-BY-STEP TIMING:
  Step 1 - Load SMPLX:        3.36s
  Step 2 - Align FPS:         11.26s
  Step 3 - Init Retarget:     0.36s
  Step 4 - Init Visualization: 0.00s
  Step 5 - Process Frames:    79.29s (avg: 0.088s/frame)
  Step 6 - Convert Arrays:    0.00s
  Step 7 - Forward Kinematics: 0.21s
  Step 8 - Save Data:         0.01s
Status: SUCCESS
==================================================

=== SUCCESS LOG - 2025-10-14 20:04:04 ===
Input file: /data/retarget/locomotion/raw/AMASS_SMPLXG/Eyes_Japan_Dataset/kaiwa/gesture_etc-35-west_side-kaiwa_stageii.npz
Output file: ../robot/ik_based/pkl/008557.pkl
Robot type: unitree_g1
Processing time: 102.96 seconds

STEP-BY-STEP TIMING:
  Step 1 - Load SMPLX:        3.43s
  Step 2 - Align FPS:         8.46s
  Step 3 - Init Retarget:     0.28s
  Step 4 - Init Visualization: 0.00s
  Step 5 - Process Frames:    90.44s (avg: 0.100s/frame)
  Step 6 - Convert Arrays:    0.00s
  Step 7 - Forward Kinematics: 0.20s
  Step 8 - Save Data:         0.01s
Status: SUCCESS
==================================================

=== SUCCESS LOG - 2025-10-14 20:04:14 ===
Input file: /data/retarget/locomotion/raw/AMASS_SMPLXG/Eyes_Japan_Dataset/kaiwa/gesture_etc-35-west_side-kaiwa_stageii.npz
Output file: ../robot/ik_based/pkl/008557.pkl
Robot type: unitree_g1
Processing time: 101.97 seconds

STEP-BY-STEP TIMING:
  Step 1 - Load SMPLX:        3.33s
  Step 2 - Align FPS:         8.30s
  Step 3 - Init Retarget:     0.26s
  Step 4 - Init Visualization: 0.00s
  Step 5 - Process Frames:    89.81s (avg: 0.100s/frame)
  Step 6 - Convert Arrays:    0.00s
  Step 7 - Forward Kinematics: 0.15s
  Step 8 - Save Data:         0.01s
Status: SUCCESS
==================================================

=== SUCCESS LOG - 2025-10-14 20:04:30 ===
Input file: /data/retarget/locomotion/raw/AMASS_SMPLXG/Eyes_Japan_Dataset/kaiwa/gesture_etc-37-gay-kaiwa_stageii.npz
Output file: ../robot/ik_based/pkl/008558.pkl
Robot type: unitree_g1
Processing time: 94.95 seconds

STEP-BY-STEP TIMING:
  Step 1 - Load SMPLX:        3.21s
  Step 2 - Align FPS:         8.81s
  Step 3 - Init Retarget:     0.26s
  Step 4 - Init Visualization: 0.00s
  Step 5 - Process Frames:    82.37s (avg: 0.092s/frame)
  Step 6 - Convert Arrays:    0.00s
  Step 7 - Forward Kinematics: 0.15s
  Step 8 - Save Data:         0.01s
Status: SUCCESS
==================================================

=== SUCCESS LOG - 2025-10-14 20:04:40 ===
Input file: /data/retarget/locomotion/raw/AMASS_SMPLXG/Eyes_Japan_Dataset/kaiwa/gesture_etc-37-gay-kaiwa_stageii.npz
Output file: ../robot/ik_based/pkl/008558.pkl
Robot type: unitree_g1
Processing time: 92.14 seconds

STEP-BY-STEP TIMING:
  Step 1 - Load SMPLX:        3.20s
  Step 2 - Align FPS:         8.35s
  Step 3 - Init Retarget:     0.26s
  Step 4 - Init Visualization: 0.00s
  Step 5 - Process Frames:    79.96s (avg: 0.089s/frame)
  Step 6 - Convert Arrays:    0.00s
  Step 7 - Forward Kinematics: 0.20s
  Step 8 - Save Data:         0.01s
Status: SUCCESS
==================================================

=== SUCCESS LOG - 2025-10-14 20:05:34 ===
Input file: /data/retarget/locomotion/raw/AMASS_SMPLXG/Eyes_Japan_Dataset/kaiwa/gesture_etc-39-giant_baba-kaiwa_stageii.npz
Output file: ../robot/ik_based/pkl/008560.pkl
Robot type: unitree_g1
Processing time: 89.24 seconds

STEP-BY-STEP TIMING:
  Step 1 - Load SMPLX:        3.29s
  Step 2 - Align FPS:         7.62s
  Step 3 - Init Retarget:     0.21s
  Step 4 - Init Visualization: 0.00s
  Step 5 - Process Frames:    77.78s (avg: 0.086s/frame)
  Step 6 - Convert Arrays:    0.00s
  Step 7 - Forward Kinematics: 0.20s
  Step 8 - Save Data:         0.01s
Status: SUCCESS
==================================================

=== SUCCESS LOG - 2025-10-14 20:05:41 ===
Input file: /data/retarget/locomotion/raw/AMASS_SMPLXG/Eyes_Japan_Dataset/kaiwa/gesture_etc-40-head_banging-kaiwa_stageii.npz
Output file: ../robot/ik_based/pkl/008561.pkl
Robot type: unitree_g1
Processing time: 70.77 seconds

STEP-BY-STEP TIMING:
  Step 1 - Load SMPLX:        2.58s
  Step 2 - Align FPS:         8.83s
  Step 3 - Init Retarget:     0.24s
  Step 4 - Init Visualization: 0.00s
  Step 5 - Process Frames:    58.78s (avg: 0.065s/frame)
  Step 6 - Convert Arrays:    0.00s
  Step 7 - Forward Kinematics: 0.14s
  Step 8 - Save Data:         0.01s
Status: SUCCESS
==================================================

=== SUCCESS LOG - 2025-10-14 20:05:43 ===
Input file: /data/retarget/locomotion/raw/AMASS_SMPLXG/Eyes_Japan_Dataset/kaiwa/gesture_etc-39-giant_baba-kaiwa_stageii.npz
Output file: ../robot/ik_based/pkl/008560.pkl
Robot type: unitree_g1
Processing time: 88.53 seconds

STEP-BY-STEP TIMING:
  Step 1 - Load SMPLX:        3.07s
  Step 2 - Align FPS:         9.06s
  Step 3 - Init Retarget:     0.24s
  Step 4 - Init Visualization: 0.00s
  Step 5 - Process Frames:    75.80s (avg: 0.084s/frame)
  Step 6 - Convert Arrays:    0.00s
  Step 7 - Forward Kinematics: 0.22s
  Step 8 - Save Data:         0.00s
Status: SUCCESS
==================================================

=== SUCCESS LOG - 2025-10-14 20:05:48 ===
Input file: /data/retarget/locomotion/raw/AMASS_SMPLXG/Eyes_Japan_Dataset/kaiwa/gesture_etc-40-head_banging-kaiwa_stageii.npz
Output file: ../robot/ik_based/pkl/008561.pkl
Robot type: unitree_g1
Processing time: 66.80 seconds

STEP-BY-STEP TIMING:
  Step 1 - Load SMPLX:        3.13s
  Step 2 - Align FPS:         8.50s
  Step 3 - Init Retarget:     0.21s
  Step 4 - Init Visualization: 0.00s
  Step 5 - Process Frames:    54.88s (avg: 0.061s/frame)
  Step 6 - Convert Arrays:    0.01s
  Step 7 - Forward Kinematics: 0.03s
  Step 8 - Save Data:         0.00s
Status: SUCCESS
==================================================

=== SUCCESS LOG - 2025-10-14 20:06:52 ===
Input file: /data/retarget/locomotion/raw/AMASS_SMPLXG/Eyes_Japan_Dataset/kaiwa/gesture_etc-42-hung_over-kaiwa_stageii.npz
Output file: ../robot/ik_based/pkl/008563.pkl
Robot type: unitree_g1
Processing time: 68.40 seconds

STEP-BY-STEP TIMING:
  Step 1 - Load SMPLX:        3.57s
  Step 2 - Align FPS:         6.13s
  Step 3 - Init Retarget:     0.29s
  Step 4 - Init Visualization: 0.00s
  Step 5 - Process Frames:    57.94s (avg: 0.064s/frame)
  Step 6 - Convert Arrays:    0.00s
  Step 7 - Forward Kinematics: 0.28s
  Step 8 - Save Data:         0.01s
Status: SUCCESS
==================================================

=== SUCCESS LOG - 2025-10-14 20:06:54 ===
Input file: /data/retarget/locomotion/raw/AMASS_SMPLXG/Eyes_Japan_Dataset/kaiwa/gesture_etc-42-hung_over-kaiwa_stageii.npz
Output file: ../robot/ik_based/pkl/008563.pkl
Robot type: unitree_g1
Processing time: 71.72 seconds

STEP-BY-STEP TIMING:
  Step 1 - Load SMPLX:        4.70s
  Step 2 - Align FPS:         11.01s
  Step 3 - Init Retarget:     0.36s
  Step 4 - Init Visualization: 0.00s
  Step 5 - Process Frames:    55.23s (avg: 0.061s/frame)
  Step 6 - Convert Arrays:    0.00s
  Step 7 - Forward Kinematics: 0.20s
  Step 8 - Save Data:         0.01s
Status: SUCCESS
==================================================

=== SUCCESS LOG - 2025-10-14 20:07:04 ===
Input file: /data/retarget/locomotion/raw/AMASS_SMPLXG/Eyes_Japan_Dataset/kaiwa/gesture_etc-41-mosh-kaiwa_stageii.npz
Output file: ../robot/ik_based/pkl/008562.pkl
Robot type: unitree_g1
Processing time: 89.25 seconds

STEP-BY-STEP TIMING:
  Step 1 - Load SMPLX:        2.82s
  Step 2 - Align FPS:         7.67s
  Step 3 - Init Retarget:     0.29s
  Step 4 - Init Visualization: 0.00s
  Step 5 - Process Frames:    77.75s (avg: 0.086s/frame)
  Step 6 - Convert Arrays:    0.00s
  Step 7 - Forward Kinematics: 0.43s
  Step 8 - Save Data:         0.01s
Status: SUCCESS
==================================================

=== SUCCESS LOG - 2025-10-14 20:07:07 ===
Input file: /data/retarget/locomotion/raw/AMASS_SMPLXG/Eyes_Japan_Dataset/kaiwa/gesture_etc-43-brush_teeth-kaiwa_stageii.npz
Output file: ../robot/ik_based/pkl/008564.pkl
Robot type: unitree_g1
Processing time: 78.25 seconds

STEP-BY-STEP TIMING:
  Step 1 - Load SMPLX:        9.03s
  Step 2 - Align FPS:         10.25s
  Step 3 - Init Retarget:     0.39s
  Step 4 - Init Visualization: 0.00s
  Step 5 - Process Frames:    58.50s (avg: 0.065s/frame)
  Step 6 - Convert Arrays:    0.00s
  Step 7 - Forward Kinematics: 0.03s
  Step 8 - Save Data:         0.00s
Status: SUCCESS
==================================================

=== SUCCESS LOG - 2025-10-14 20:08:20 ===
Input file: /data/retarget/locomotion/raw/AMASS_SMPLXG/Eyes_Japan_Dataset/kaiwa/gesture_etc-46-vomit_of_blood-kaiwa_stageii.npz
Output file: ../robot/ik_based/pkl/008566.pkl
Robot type: unitree_g1
Processing time: 75.64 seconds

STEP-BY-STEP TIMING:
  Step 1 - Load SMPLX:        4.98s
  Step 2 - Align FPS:         9.92s
  Step 3 - Init Retarget:     0.22s
  Step 4 - Init Visualization: 0.00s
  Step 5 - Process Frames:    60.25s (avg: 0.067s/frame)
  Step 6 - Convert Arrays:    0.00s
  Step 7 - Forward Kinematics: 0.14s
  Step 8 - Save Data:         0.01s
Status: SUCCESS
==================================================

=== SUCCESS LOG - 2025-10-14 20:08:22 ===
Input file: /data/retarget/locomotion/raw/AMASS_SMPLXG/Eyes_Japan_Dataset/kaiwa/gesture_etc-46-vomit_of_blood-kaiwa_stageii.npz
Output file: ../robot/ik_based/pkl/008566.pkl
Robot type: unitree_g1
Processing time: 74.69 seconds

STEP-BY-STEP TIMING:
  Step 1 - Load SMPLX:        3.37s
  Step 2 - Align FPS:         9.71s
  Step 3 - Init Retarget:     0.25s
  Step 4 - Init Visualization: 0.00s
  Step 5 - Process Frames:    60.83s (avg: 0.068s/frame)
  Step 6 - Convert Arrays:    0.00s
  Step 7 - Forward Kinematics: 0.33s
  Step 8 - Save Data:         0.01s
Status: SUCCESS
==================================================

=== SUCCESS LOG - 2025-10-14 20:08:23 ===
Input file: /data/retarget/locomotion/raw/AMASS_SMPLXG/Eyes_Japan_Dataset/kaiwa/gesture_etc-45-feel_dizzy_-kaiwa_stageii.npz
Output file: ../robot/ik_based/pkl/008565.pkl
Robot type: unitree_g1
Processing time: 88.50 seconds

STEP-BY-STEP TIMING:
  Step 1 - Load SMPLX:        3.45s
  Step 2 - Align FPS:         8.80s
  Step 3 - Init Retarget:     0.42s
  Step 4 - Init Visualization: 0.00s
  Step 5 - Process Frames:    75.79s (avg: 0.084s/frame)
  Step 6 - Convert Arrays:    0.00s
  Step 7 - Forward Kinematics: 0.02s
  Step 8 - Save Data:         0.00s
Status: SUCCESS
==================================================

=== SUCCESS LOG - 2025-10-14 20:08:23 ===
Input file: /data/retarget/locomotion/raw/AMASS_SMPLXG/Eyes_Japan_Dataset/kaiwa/gesture_etc-45-feel_dizzy_-kaiwa_stageii.npz
Output file: ../robot/ik_based/pkl/008565.pkl
Robot type: unitree_g1
Processing time: 89.72 seconds

STEP-BY-STEP TIMING:
  Step 1 - Load SMPLX:        3.77s
  Step 2 - Align FPS:         9.29s
  Step 3 - Init Retarget:     0.31s
  Step 4 - Init Visualization: 0.00s
  Step 5 - Process Frames:    76.29s (avg: 0.085s/frame)
  Step 6 - Convert Arrays:    0.00s
  Step 7 - Forward Kinematics: 0.02s
  Step 8 - Save Data:         0.00s
Status: SUCCESS
==================================================

=== SUCCESS LOG - 2025-10-14 20:09:41 ===
Input file: /data/retarget/locomotion/raw/AMASS_SMPLXG/Eyes_Japan_Dataset/kaiwa/gesture_etc-49-taiko_under-kaiwa_stageii.npz
Output file: ../robot/ik_based/pkl/008569.pkl
Robot type: unitree_g1
Processing time: 77.23 seconds

STEP-BY-STEP TIMING:
  Step 1 - Load SMPLX:        4.25s
  Step 2 - Align FPS:         9.73s
  Step 3 - Init Retarget:     0.28s
  Step 4 - Init Visualization: 0.00s
  Step 5 - Process Frames:    62.75s (avg: 0.070s/frame)
  Step 6 - Convert Arrays:    0.00s
  Step 7 - Forward Kinematics: 0.12s
  Step 8 - Save Data:         0.00s
Status: SUCCESS
==================================================

=== SUCCESS LOG - 2025-10-14 20:09:44 ===
Input file: /data/retarget/locomotion/raw/AMASS_SMPLXG/Eyes_Japan_Dataset/kaiwa/gesture_etc-49-taiko_under-kaiwa_stageii.npz
Output file: ../robot/ik_based/pkl/008569.pkl
Robot type: unitree_g1
Processing time: 80.14 seconds

STEP-BY-STEP TIMING:
  Step 1 - Load SMPLX:        3.98s
  Step 2 - Align FPS:         11.19s
  Step 3 - Init Retarget:     1.51s
  Step 4 - Init Visualization: 0.00s
  Step 5 - Process Frames:    63.16s (avg: 0.070s/frame)
  Step 6 - Convert Arrays:    0.00s
  Step 7 - Forward Kinematics: 0.16s
  Step 8 - Save Data:         0.01s
Status: SUCCESS
==================================================

=== SUCCESS LOG - 2025-10-14 20:09:49 ===
Input file: /data/retarget/locomotion/raw/AMASS_SMPLXG/Eyes_Japan_Dataset/kaiwa/gesture_etc-48-medium_drum-kaiwa_stageii.npz
Output file: ../robot/ik_based/pkl/008568.pkl
Robot type: unitree_g1
Processing time: 88.31 seconds

STEP-BY-STEP TIMING:
  Step 1 - Load SMPLX:        3.72s
  Step 2 - Align FPS:         9.74s
  Step 3 - Init Retarget:     0.38s
  Step 4 - Init Visualization: 0.00s
  Step 5 - Process Frames:    73.88s (avg: 0.082s/frame)
  Step 6 - Convert Arrays:    0.00s
  Step 7 - Forward Kinematics: 0.28s
  Step 8 - Save Data:         0.02s
Status: SUCCESS
==================================================

=== SUCCESS LOG - 2025-10-14 20:09:53 ===
Input file: /data/retarget/locomotion/raw/AMASS_SMPLXG/Eyes_Japan_Dataset/kaiwa/gesture_etc-48-medium_drum-kaiwa_stageii.npz
Output file: ../robot/ik_based/pkl/008568.pkl
Robot type: unitree_g1
Processing time: 89.67 seconds

STEP-BY-STEP TIMING:
  Step 1 - Load SMPLX:        4.54s
  Step 2 - Align FPS:         12.92s
  Step 3 - Init Retarget:     0.23s
  Step 4 - Init Visualization: 0.00s
  Step 5 - Process Frames:    71.22s (avg: 0.079s/frame)
  Step 6 - Convert Arrays:    0.00s
  Step 7 - Forward Kinematics: 0.28s
  Step 8 - Save Data:         0.02s
Status: SUCCESS
==================================================

=== SUCCESS LOG - 2025-10-14 20:10:52 ===
Input file: /data/retarget/locomotion/raw/AMASS_SMPLXG/Eyes_Japan_Dataset/kaiwa/greeting-01-hello-kaiwa_stageii.npz
Output file: ../robot/ik_based/pkl/008570.pkl
Robot type: unitree_g1
Processing time: 70.26 seconds

STEP-BY-STEP TIMING:
  Step 1 - Load SMPLX:        3.55s
  Step 2 - Align FPS:         6.90s
  Step 3 - Init Retarget:     0.46s
  Step 4 - Init Visualization: 0.00s
  Step 5 - Process Frames:    58.97s (avg: 0.066s/frame)
  Step 6 - Convert Arrays:    0.01s
  Step 7 - Forward Kinematics: 0.17s
  Step 8 - Save Data:         0.01s
Status: SUCCESS
==================================================

=== SUCCESS LOG - 2025-10-14 20:10:55 ===
Input file: /data/retarget/locomotion/raw/AMASS_SMPLXG/Eyes_Japan_Dataset/kaiwa/greeting-01-hello-kaiwa_stageii.npz
Output file: ../robot/ik_based/pkl/008570.pkl
Robot type: unitree_g1
Processing time: 70.52 seconds

STEP-BY-STEP TIMING:
  Step 1 - Load SMPLX:        2.98s
  Step 2 - Align FPS:         7.25s
  Step 3 - Init Retarget:     0.21s
  Step 4 - Init Visualization: 0.00s
  Step 5 - Process Frames:    59.58s (avg: 0.066s/frame)
  Step 6 - Convert Arrays:    0.00s
  Step 7 - Forward Kinematics: 0.31s
  Step 8 - Save Data:         0.01s
Status: SUCCESS
==================================================

=== SUCCESS LOG - 2025-10-14 20:11:01 ===
Input file: /data/retarget/locomotion/raw/AMASS_SMPLXG/Eyes_Japan_Dataset/kaiwa/greeting-02-bye-kaiwa_stageii.npz
Output file: ../robot/ik_based/pkl/008571.pkl
Robot type: unitree_g1
Processing time: 71.12 seconds

STEP-BY-STEP TIMING:
  Step 1 - Load SMPLX:        4.12s
  Step 2 - Align FPS:         10.24s
  Step 3 - Init Retarget:     0.26s
  Step 4 - Init Visualization: 0.00s
  Step 5 - Process Frames:    55.76s (avg: 0.062s/frame)
  Step 6 - Convert Arrays:    0.00s
  Step 7 - Forward Kinematics: 0.45s
  Step 8 - Save Data:         0.00s
Status: SUCCESS
==================================================

=== SUCCESS LOG - 2025-10-14 20:11:01 ===
Input file: /data/retarget/locomotion/raw/AMASS_SMPLXG/Eyes_Japan_Dataset/kaiwa/greeting-02-bye-kaiwa_stageii.npz
Output file: ../robot/ik_based/pkl/008571.pkl
Robot type: unitree_g1
Processing time: 67.96 seconds

STEP-BY-STEP TIMING:
  Step 1 - Load SMPLX:        4.41s
  Step 2 - Align FPS:         9.81s
  Step 3 - Init Retarget:     0.26s
  Step 4 - Init Visualization: 0.00s
  Step 5 - Process Frames:    52.97s (avg: 0.059s/frame)
  Step 6 - Convert Arrays:    0.00s
  Step 7 - Forward Kinematics: 0.25s
  Step 8 - Save Data:         0.01s
Status: SUCCESS
==================================================

=== SUCCESS LOG - 2025-10-14 20:12:03 ===
Input file: /data/retarget/locomotion/raw/AMASS_SMPLXG/Eyes_Japan_Dataset/kaiwa/greeting-04-salute_(head)-kaiwa_stageii.npz
Output file: ../robot/ik_based/pkl/008573.pkl
Robot type: unitree_g1
Processing time: 70.75 seconds

STEP-BY-STEP TIMING:
  Step 1 - Load SMPLX:        2.74s
  Step 2 - Align FPS:         7.54s
  Step 3 - Init Retarget:     0.48s
  Step 4 - Init Visualization: 0.00s
  Step 5 - Process Frames:    59.65s (avg: 0.066s/frame)
  Step 6 - Convert Arrays:    0.00s
  Step 7 - Forward Kinematics: 0.18s
  Step 8 - Save Data:         0.00s
Status: SUCCESS
==================================================

=== SUCCESS LOG - 2025-10-14 20:12:08 ===
Input file: /data/retarget/locomotion/raw/AMASS_SMPLXG/Eyes_Japan_Dataset/kaiwa/greeting-05-salute_(chest)-kaiwa_stageii.npz
Output file: ../robot/ik_based/pkl/008574.pkl
Robot type: unitree_g1
Processing time: 65.00 seconds

STEP-BY-STEP TIMING:
  Step 1 - Load SMPLX:        2.58s
  Step 2 - Align FPS:         8.97s
  Step 3 - Init Retarget:     0.26s
  Step 4 - Init Visualization: 0.00s
  Step 5 - Process Frames:    52.91s (avg: 0.059s/frame)
  Step 6 - Convert Arrays:    0.00s
  Step 7 - Forward Kinematics: 0.18s
  Step 8 - Save Data:         0.00s
Status: SUCCESS
==================================================

=== SUCCESS LOG - 2025-10-14 20:12:08 ===
Input file: /data/retarget/locomotion/raw/AMASS_SMPLXG/Eyes_Japan_Dataset/kaiwa/greeting-04-salute_(head)-kaiwa_stageii.npz
Output file: ../robot/ik_based/pkl/008573.pkl
Robot type: unitree_g1
Processing time: 72.32 seconds

STEP-BY-STEP TIMING:
  Step 1 - Load SMPLX:        3.43s
  Step 2 - Align FPS:         6.41s
  Step 3 - Init Retarget:     0.19s
  Step 4 - Init Visualization: 0.00s
  Step 5 - Process Frames:    61.95s (avg: 0.069s/frame)
  Step 6 - Convert Arrays:    0.00s
  Step 7 - Forward Kinematics: 0.18s
  Step 8 - Save Data:         0.00s
Status: SUCCESS
==================================================

=== SUCCESS LOG - 2025-10-14 20:12:11 ===
Input file: /data/retarget/locomotion/raw/AMASS_SMPLXG/Eyes_Japan_Dataset/kaiwa/greeting-05-salute_(chest)-kaiwa_stageii.npz
Output file: ../robot/ik_based/pkl/008574.pkl
Robot type: unitree_g1
Processing time: 69.16 seconds

STEP-BY-STEP TIMING:
  Step 1 - Load SMPLX:        5.31s
  Step 2 - Align FPS:         9.03s
  Step 3 - Init Retarget:     0.27s
  Step 4 - Init Visualization: 0.00s
  Step 5 - Process Frames:    54.49s (avg: 0.061s/frame)
  Step 6 - Convert Arrays:    0.00s
  Step 7 - Forward Kinematics: 0.02s
  Step 8 - Save Data:         0.00s
Status: SUCCESS
==================================================

=== SUCCESS LOG - 2025-10-14 20:13:14 ===
Input file: /data/retarget/locomotion/raw/AMASS_SMPLXG/Eyes_Japan_Dataset/kaiwa/greeting-07-bow-kaiwa_stageii.npz
Output file: ../robot/ik_based/pkl/008575.pkl
Robot type: unitree_g1
Processing time: 70.67 seconds

STEP-BY-STEP TIMING:
  Step 1 - Load SMPLX:        2.83s
  Step 2 - Align FPS:         6.38s
  Step 3 - Init Retarget:     0.27s
  Step 4 - Init Visualization: 0.00s
  Step 5 - Process Frames:    60.86s (avg: 0.068s/frame)
  Step 6 - Convert Arrays:    0.00s
  Step 7 - Forward Kinematics: 0.19s
  Step 8 - Save Data:         0.01s
Status: SUCCESS
==================================================

=== SUCCESS LOG - 2025-10-14 20:13:19 ===
Input file: /data/retarget/locomotion/raw/AMASS_SMPLXG/Eyes_Japan_Dataset/kaiwa/greeting-08-shakehands-kaiwa_stageii.npz
Output file: ../robot/ik_based/pkl/008576.pkl
Robot type: unitree_g1
Processing time: 70.33 seconds

STEP-BY-STEP TIMING:
  Step 1 - Load SMPLX:        6.08s
  Step 2 - Align FPS:         8.34s
  Step 3 - Init Retarget:     0.23s
  Step 4 - Init Visualization: 0.00s
  Step 5 - Process Frames:    55.15s (avg: 0.061s/frame)
  Step 6 - Convert Arrays:    0.01s
  Step 7 - Forward Kinematics: 0.18s
  Step 8 - Save Data:         0.02s
Status: SUCCESS
==================================================

=== SUCCESS LOG - 2025-10-14 20:13:23 ===
Input file: /data/retarget/locomotion/raw/AMASS_SMPLXG/Eyes_Japan_Dataset/kaiwa/greeting-08-shakehands-kaiwa_stageii.npz
Output file: ../robot/ik_based/pkl/008576.pkl
Robot type: unitree_g1
Processing time: 71.65 seconds

STEP-BY-STEP TIMING:
  Step 1 - Load SMPLX:        3.46s
  Step 2 - Align FPS:         10.21s
  Step 3 - Init Retarget:     0.21s
  Step 4 - Init Visualization: 0.00s
  Step 5 - Process Frames:    57.53s (avg: 0.064s/frame)
  Step 6 - Convert Arrays:    0.00s
  Step 7 - Forward Kinematics: 0.20s
  Step 8 - Save Data:         0.00s
Status: SUCCESS
==================================================

=== SUCCESS LOG - 2025-10-14 20:13:23 ===
Input file: /data/retarget/locomotion/raw/AMASS_SMPLXG/Eyes_Japan_Dataset/kaiwa/greeting-07-bow-kaiwa_stageii.npz
Output file: ../robot/ik_based/pkl/008575.pkl
Robot type: unitree_g1
Processing time: 74.70 seconds

STEP-BY-STEP TIMING:
  Step 1 - Load SMPLX:        4.77s
  Step 2 - Align FPS:         10.14s
  Step 3 - Init Retarget:     1.28s
  Step 4 - Init Visualization: 0.00s
  Step 5 - Process Frames:    58.23s (avg: 0.065s/frame)
  Step 6 - Convert Arrays:    0.00s
  Step 7 - Forward Kinematics: 0.12s
  Step 8 - Save Data:         0.00s
Status: SUCCESS
==================================================

=== SUCCESS LOG - 2025-10-14 20:14:27 ===
Input file: /data/retarget/locomotion/raw/AMASS_SMPLXG/Eyes_Japan_Dataset/kaiwa/jump-01-normal-kaiwa_stageii.npz
Output file: ../robot/ik_based/pkl/008578.pkl
Robot type: unitree_g1
Processing time: 72.32 seconds

STEP-BY-STEP TIMING:
  Step 1 - Load SMPLX:        2.83s
  Step 2 - Align FPS:         6.36s
  Step 3 - Init Retarget:     0.32s
  Step 4 - Init Visualization: 0.00s
  Step 5 - Process Frames:    62.43s (avg: 0.069s/frame)
  Step 6 - Convert Arrays:    0.00s
  Step 7 - Forward Kinematics: 0.21s
  Step 8 - Save Data:         0.01s
Status: SUCCESS
==================================================

=== SUCCESS LOG - 2025-10-14 20:14:36 ===
Input file: /data/retarget/locomotion/raw/AMASS_SMPLXG/Eyes_Japan_Dataset/kaiwa/jump-02-leap-kaiwa_stageii.npz
Output file: ../robot/ik_based/pkl/008579.pkl
Robot type: unitree_g1
Processing time: 76.31 seconds

STEP-BY-STEP TIMING:
  Step 1 - Load SMPLX:        5.43s
  Step 2 - Align FPS:         9.66s
  Step 3 - Init Retarget:     0.36s
  Step 4 - Init Visualization: 0.00s
  Step 5 - Process Frames:    60.41s (avg: 0.067s/frame)
  Step 6 - Convert Arrays:    0.00s
  Step 7 - Forward Kinematics: 0.28s
  Step 8 - Save Data:         0.01s
Status: SUCCESS
==================================================

=== SUCCESS LOG - 2025-10-14 20:14:42 ===
Input file: /data/retarget/locomotion/raw/AMASS_SMPLXG/Eyes_Japan_Dataset/kaiwa/jump-01-normal-kaiwa_stageii.npz
Output file: ../robot/ik_based/pkl/008578.pkl
Robot type: unitree_g1
Processing time: 76.93 seconds

STEP-BY-STEP TIMING:
  Step 1 - Load SMPLX:        3.66s
  Step 2 - Align FPS:         13.26s
  Step 3 - Init Retarget:     0.26s
  Step 4 - Init Visualization: 0.00s
  Step 5 - Process Frames:    59.37s (avg: 0.066s/frame)
  Step 6 - Convert Arrays:    0.00s
  Step 7 - Forward Kinematics: 0.21s
  Step 8 - Save Data:         0.01s
Status: SUCCESS
==================================================

=== SUCCESS LOG - 2025-10-14 20:14:44 ===
Input file: /data/retarget/locomotion/raw/AMASS_SMPLXG/Eyes_Japan_Dataset/kaiwa/jump-02-leap-kaiwa_stageii.npz
Output file: ../robot/ik_based/pkl/008579.pkl
Robot type: unitree_g1
Processing time: 79.80 seconds

STEP-BY-STEP TIMING:
  Step 1 - Load SMPLX:        3.65s
  Step 2 - Align FPS:         12.75s
  Step 3 - Init Retarget:     0.47s
  Step 4 - Init Visualization: 0.00s
  Step 5 - Process Frames:    62.85s (avg: 0.070s/frame)
  Step 6 - Convert Arrays:    0.01s
  Step 7 - Forward Kinematics: 0.03s
  Step 8 - Save Data:         0.02s
Status: SUCCESS
==================================================

=== SUCCESS LOG - 2025-10-14 20:15:51 ===
Input file: /data/retarget/locomotion/raw/AMASS_SMPLXG/Eyes_Japan_Dataset/kaiwa/jump-03-vertical-kaiwa_stageii.npz
Output file: ../robot/ik_based/pkl/008580.pkl
Robot type: unitree_g1
Processing time: 83.24 seconds

STEP-BY-STEP TIMING:
  Step 1 - Load SMPLX:        2.75s
  Step 2 - Align FPS:         8.45s
  Step 3 - Init Retarget:     0.25s
  Step 4 - Init Visualization: 0.00s
  Step 5 - Process Frames:    71.50s (avg: 0.079s/frame)
  Step 6 - Convert Arrays:    0.00s
  Step 7 - Forward Kinematics: 0.18s
  Step 8 - Save Data:         0.00s
Status: SUCCESS
==================================================

=== SUCCESS LOG - 2025-10-14 20:15:52 ===
Input file: /data/retarget/locomotion/raw/AMASS_SMPLXG/Eyes_Japan_Dataset/kaiwa/jump-04-horizontal-kaiwa_stageii.npz
Output file: ../robot/ik_based/pkl/008581.pkl
Robot type: unitree_g1
Processing time: 75.40 seconds

STEP-BY-STEP TIMING:
  Step 1 - Load SMPLX:        4.19s
  Step 2 - Align FPS:         8.91s
  Step 3 - Init Retarget:     0.22s
  Step 4 - Init Visualization: 0.00s
  Step 5 - Process Frames:    62.02s (avg: 0.069s/frame)
  Step 6 - Convert Arrays:    0.00s
  Step 7 - Forward Kinematics: 0.02s
  Step 8 - Save Data:         0.00s
Status: SUCCESS
==================================================

=== SUCCESS LOG - 2025-10-14 20:16:05 ===
Input file: /data/retarget/locomotion/raw/AMASS_SMPLXG/Eyes_Japan_Dataset/kaiwa/jump-04-horizontal-kaiwa_stageii.npz
Output file: ../robot/ik_based/pkl/008581.pkl
Robot type: unitree_g1
Processing time: 79.51 seconds

STEP-BY-STEP TIMING:
  Step 1 - Load SMPLX:        2.15s
  Step 2 - Align FPS:         12.05s
  Step 3 - Init Retarget:     0.29s
  Step 4 - Init Visualization: 0.00s
  Step 5 - Process Frames:    64.66s (avg: 0.072s/frame)
  Step 6 - Convert Arrays:    0.00s
  Step 7 - Forward Kinematics: 0.18s
  Step 8 - Save Data:         0.01s
Status: SUCCESS
==================================================

=== SUCCESS LOG - 2025-10-14 20:16:06 ===
Input file: /data/retarget/locomotion/raw/AMASS_SMPLXG/Eyes_Japan_Dataset/kaiwa/jump-03-vertical-kaiwa_stageii.npz
Output file: ../robot/ik_based/pkl/008580.pkl
Robot type: unitree_g1
Processing time: 83.84 seconds

STEP-BY-STEP TIMING:
  Step 1 - Load SMPLX:        3.98s
  Step 2 - Align FPS:         10.88s
  Step 3 - Init Retarget:     0.44s
  Step 4 - Init Visualization: 0.00s
  Step 5 - Process Frames:    68.48s (avg: 0.076s/frame)
  Step 6 - Convert Arrays:    0.00s
  Step 7 - Forward Kinematics: 0.02s
  Step 8 - Save Data:         0.00s
Status: SUCCESS
==================================================

=== SUCCESS LOG - 2025-10-14 20:17:18 ===
Input file: /data/retarget/locomotion/raw/AMASS_SMPLXG/Eyes_Japan_Dataset/kaiwa/pain-01-headache-kaiwa_stageii.npz
Output file: ../robot/ik_based/pkl/008584.pkl
Robot type: unitree_g1
Processing time: 71.93 seconds

STEP-BY-STEP TIMING:
  Step 1 - Load SMPLX:        2.32s
  Step 2 - Align FPS:         10.79s
  Step 3 - Init Retarget:     0.22s
  Step 4 - Init Visualization: 0.00s
  Step 5 - Process Frames:    58.32s (avg: 0.065s/frame)
  Step 6 - Convert Arrays:    0.00s
  Step 7 - Forward Kinematics: 0.15s
  Step 8 - Save Data:         0.01s
Status: SUCCESS
==================================================

=== SUCCESS LOG - 2025-10-14 20:17:19 ===
Input file: /data/retarget/locomotion/raw/AMASS_SMPLXG/Eyes_Japan_Dataset/kaiwa/jump-13-matrix-kaiwa_stageii.npz
Output file: ../robot/ik_based/pkl/008583.pkl
Robot type: unitree_g1
Processing time: 86.17 seconds

STEP-BY-STEP TIMING:
  Step 1 - Load SMPLX:        3.00s
  Step 2 - Align FPS:         13.05s
  Step 3 - Init Retarget:     0.22s
  Step 4 - Init Visualization: 0.00s
  Step 5 - Process Frames:    69.57s (avg: 0.077s/frame)
  Step 6 - Convert Arrays:    0.00s
  Step 7 - Forward Kinematics: 0.16s
  Step 8 - Save Data:         0.01s
Status: SUCCESS
==================================================

=== SUCCESS LOG - 2025-10-14 20:17:19 ===
Input file: /data/retarget/locomotion/raw/AMASS_SMPLXG/Eyes_Japan_Dataset/kaiwa/jump-11-warmup-kaiwa_stageii.npz
Output file: ../robot/ik_based/pkl/008582.pkl
Robot type: unitree_g1
Processing time: 87.42 seconds

STEP-BY-STEP TIMING:
  Step 1 - Load SMPLX:        2.53s
  Step 2 - Align FPS:         10.36s
  Step 3 - Init Retarget:     0.20s
  Step 4 - Init Visualization: 0.00s
  Step 5 - Process Frames:    74.27s (avg: 0.083s/frame)
  Step 6 - Convert Arrays:    0.00s
  Step 7 - Forward Kinematics: 0.02s
  Step 8 - Save Data:         0.00s
Status: SUCCESS
==================================================

=== SUCCESS LOG - 2025-10-14 20:17:23 ===
Input file: /data/retarget/locomotion/raw/AMASS_SMPLXG/Eyes_Japan_Dataset/kaiwa/jump-13-matrix-kaiwa_stageii.npz
Output file: ../robot/ik_based/pkl/008583.pkl
Robot type: unitree_g1
Processing time: 78.12 seconds

STEP-BY-STEP TIMING:
  Step 1 - Load SMPLX:        2.24s
  Step 2 - Align FPS:         10.62s
  Step 3 - Init Retarget:     1.41s
  Step 4 - Init Visualization: 0.00s
  Step 5 - Process Frames:    63.77s (avg: 0.071s/frame)
  Step 6 - Convert Arrays:    0.00s
  Step 7 - Forward Kinematics: 0.02s
  Step 8 - Save Data:         0.00s
Status: SUCCESS
==================================================

=== SUCCESS LOG - 2025-10-14 20:18:46 ===
Input file: /data/retarget/locomotion/raw/AMASS_SMPLXG/Eyes_Japan_Dataset/kaiwa/pain-03-toothache-kaiwa_stageii.npz
Output file: ../robot/ik_based/pkl/008585.pkl
Robot type: unitree_g1
Processing time: 86.20 seconds

STEP-BY-STEP TIMING:
  Step 1 - Load SMPLX:        4.72s
  Step 2 - Align FPS:         12.10s
  Step 3 - Init Retarget:     1.39s
  Step 4 - Init Visualization: 0.00s
  Step 5 - Process Frames:    67.71s (avg: 0.075s/frame)
  Step 6 - Convert Arrays:    0.00s
  Step 7 - Forward Kinematics: 0.14s
  Step 8 - Save Data:         0.01s
Status: SUCCESS
==================================================

=== SUCCESS LOG - 2025-10-14 20:18:46 ===
Input file: /data/retarget/locomotion/raw/AMASS_SMPLXG/Eyes_Japan_Dataset/kaiwa/pain-03-toothache-kaiwa_stageii.npz
Output file: ../robot/ik_based/pkl/008585.pkl
Robot type: unitree_g1
Processing time: 87.11 seconds

STEP-BY-STEP TIMING:
  Step 1 - Load SMPLX:        6.10s
  Step 2 - Align FPS:         10.69s
  Step 3 - Init Retarget:     0.50s
  Step 4 - Init Visualization: 0.00s
  Step 5 - Process Frames:    69.41s (avg: 0.077s/frame)
  Step 6 - Convert Arrays:    0.00s
  Step 7 - Forward Kinematics: 0.23s
  Step 8 - Save Data:         0.01s
Status: SUCCESS
==================================================

=== SUCCESS LOG - 2025-10-14 20:18:55 ===
Input file: /data/retarget/locomotion/raw/AMASS_SMPLXG/Eyes_Japan_Dataset/kaiwa/pain-07-arthritic-kaiwa_stageii.npz
Output file: ../robot/ik_based/pkl/008586.pkl
Robot type: unitree_g1
Processing time: 90.66 seconds

STEP-BY-STEP TIMING:
  Step 1 - Load SMPLX:        2.23s
  Step 2 - Align FPS:         11.32s
[...]

Error type: RuntimeError
==================================================

=== SUCCESS LOG - 2025-10-15 06:24:58 ===
Input file: /data/retarget/locomotion/raw/AMASS_SMPLXG/HDM05/bk/HDM_bk_03-02_03_120_stageii.npz
Output file: ../robot/ik_based/pkl/010358.pkl
Robot type: unitree_g1
Processing time: 236.49 seconds

STEP-BY-STEP TIMING:
  Step 1 - Load SMPLX:        24.77s
  Step 2 - Align FPS:         25.44s
  Step 3 - Init Retarget:     0.75s
  Step 4 - Init Visualization: 0.00s
  Step 5 - Process Frames:    184.99s (avg: 0.173s/frame)
  Step 6 - Convert Arrays:    0.07s
  Step 7 - Forward Kinematics: 0.27s
  Step 8 - Save Data:         0.00s
Status: SUCCESS
==================================================

=== ERROR LOG - 2025-10-15 06:25:05 ===
Input file: /data/retarget/locomotion/raw/AMASS_SMPLXG/HDM05/bk/HDM_bk_03-03_01_120_stageii.npz
Output file: ../robot/ik_based/pkl/010359.pkl
Robot type: unitree_g1
Processing time: 219.34 seconds

STEP-BY-STEP TIMING (FAILED):
  Load Smplx: 33.43s
  Align Fps: 14.89s
  Init Retarget: 0.52s
  Init Visualization: 0.00s
  Process Frames: 170.22s (avg: 0.154s/frame)
  Convert Arrays: 0.00s
Error message: CUDA out of memory. Tried to allocate 2.00 MiB. GPU 0 has a total capacity of 23.58 GiB of which 74.31 MiB is free. Process 106491 has 332.00 MiB memory in use. Process 381781 has 332.00 MiB memory in use. Including non-PyTorch memory, this process has 336.00 MiB memory in use. Process 651323 has 340.00 MiB memory in use. Process 651495 has 338.00 MiB memory in use. Process 652122 has 336.00 MiB memory in use. Process 758984 has 332.00 MiB memory in use. Process 759061 has 332.00 MiB memory in use. Process 759140 has 332.00 MiB memory in use. Process 759277 has 332.00 MiB memory in use. Process 759587 has 332.00 MiB memory in use. Process 759754 has 332.00 MiB memory in use. Process 760292 has 332.00 MiB memory in use. Process 760574 has 332.00 MiB memory in use. Process 760908 has 332.00 MiB memory in use. Process 761223 has 332.00 MiB memory in use. Process 761507 has 332.00 MiB memory in use. Process 761784 has 332.00 MiB memory in use. Process 762065 has 332.00 MiB memory in use. Process 762398 has 332.00 MiB memory in use. Process 762712 has 332.00 MiB memory in use. Process 763000 has 332.00 MiB memory in use. Process 763207 has 332.00 MiB memory in use. Process 763626 has 332.00 MiB memory in use. Process 763813 has 332.00 MiB memory in use. Process 764099 has 62.00 MiB memory in use. Process 764277 has 332.00 MiB memory in use. Process 764470 has 332.00 MiB memory in use. Process 764800 has 332.00 MiB memory in use. Process 765270 has 332.00 MiB memory in use. Process 765495 has 332.00 MiB memory in use. Process 765996 has 332.00 MiB memory in use. Process 766580 has 332.00 MiB memory in use. Process 766668 has 332.00 MiB memory in use. Process 767492 has 332.00 MiB memory in use. Process 767044 has 332.00 MiB memory in use. Process 767720 has 332.00 MiB memory in use. Process 767797 has 332.00 MiB memory in use. Process 768541 has 332.00 MiB memory in use. Process 769125 has 332.00 MiB memory in use. Process 768850 has 332.00 MiB memory in use. Process 769686 has 332.00 MiB memory in use. Process 769459 has 332.00 MiB memory in use. Process 769827 has 332.00 MiB memory in use. Process 770524 has 332.00 MiB memory in use. Process 770888 has 332.00 MiB memory in use. Process 770316 has 332.00 MiB memory in use. Process 771275 has 332.00 MiB memory in use. Process 771105 has 332.00 MiB memory in use. Process 771771 has 332.00 MiB memory in use. Process 771619 has 332.00 MiB memory in use. Process 772148 has 332.00 MiB memory in use. Process 772899 has 332.00 MiB memory in use. Process 772664 has 332.00 MiB memory in use. Process 773176 has 332.00 MiB memory in use. Process 773279 has 332.00 MiB memory in use. Process 773623 has 332.00 MiB memory in use. Process 774056 has 332.00 MiB memory in use. Process 774461 has 332.00 MiB memory in use. Process 774726 has 332.00 MiB memory in use. Process 774904 has 332.00 MiB memory in use. Process 775026 has 332.00 MiB memory in use. Process 775459 has 332.00 MiB memory in use. Process 775737 has 332.00 MiB memory in use. Process 775847 has 332.00 MiB memory in use. Process 776237 has 332.00 MiB memory in use. Process 776606 has 332.00 MiB memory in use. Process 776978 has 332.00 MiB memory in use. Process 776886 has 332.00 MiB memory in use. Process 777350 has 332.00 MiB memory in use. Process 777531 has 332.00 MiB memory in use. Process 879266 has 332.00 MiB memory in use. Of the allocated memory 18.16 MiB is allocated by PyTorch, and 3.84 MiB is reserved by PyTorch but unallocated. If reserved but unallocated memory is large try setting PYTORCH_CUDA_ALLOC_CONF=expandable_segments:True to avoid fragmentation.  See documentation for Memory Management  (https://pytorch.org/docs/stable/notes/cuda.html#environment-variables)
Error type: OutOfMemoryError
==================================================

=== SUCCESS LOG - 2025-10-15 06:25:08 ===
Input file: /data/retarget/locomotion/raw/AMASS_SMPLXG/HDM05/bk/HDM_bk_03-03_01_120_stageii.npz
Output file: ../robot/ik_based/pkl/010359.pkl
Robot type: unitree_g1
Processing time: 222.13 seconds

STEP-BY-STEP TIMING:
  Step 1 - Load SMPLX:        35.49s
  Step 2 - Align FPS:         9.88s
  Step 3 - Init Retarget:     0.29s
  Step 4 - Init Visualization: 0.00s
  Step 5 - Process Frames:    176.20s (avg: 0.160s/frame)
  Step 6 - Convert Arrays:    0.00s
  Step 7 - Forward Kinematics: 0.12s
  Step 8 - Save Data:         0.04s
Status: SUCCESS
==================================================

=== ERROR LOG - 2025-10-15 06:29:05 ===
Input file: /data/retarget/locomotion/raw/AMASS_SMPLXG/HDM05/bk/HDM_bk_03-03_03_120_stageii.npz
Output file: ../robot/ik_based/pkl/010361.pkl
Robot type: unitree_g1
Processing time: 238.77 seconds

STEP-BY-STEP TIMING (FAILED):
  Load Smplx: 19.01s
  Align Fps: 30.84s
  Init Retarget: 0.67s
  Init Visualization: 0.00s
  Process Frames: 187.07s (avg: 0.156s/frame)
  Convert Arrays: 0.02s
Error message: The following operation failed in the TorchScript interpreter.
Traceback of TorchScript (most recent call last):
  File "/data/retarget/locomotion/GMR/general_motion_retargeting/torch_utils.py", line 136, in quat_mul
    z = qq - zz + (z1 + y1) * (w2 - x2)

    quat = torch.stack([x, y, z, w], dim=-1).view(shape)
           ~~~~~~~~~~~ <--- HERE

    return quat
RuntimeError: CUDA out of memory. Tried to allocate 2.00 MiB. GPU 0 has a total capacity of 23.58 GiB of which 74.31 MiB is free. Process 106491 has 332.00 MiB memory in use. Process 381781 has 332.00 MiB memory in use. Including non-PyTorch memory, this process has 336.00 MiB memory in use. Process 651323 has 340.00 MiB memory in use. Process 651495 has 338.00 MiB memory in use. Process 652122 has 336.00 MiB memory in use. Process 758984 has 332.00 MiB memory in use. Process 759061 has 332.00 MiB memory in use. Process 759140 has 332.00 MiB memory in use. Process 759277 has 332.00 MiB memory in use. Process 759587 has 332.00 MiB memory in use. Process 759754 has 332.00 MiB memory in use. Process 760292 has 332.00 MiB memory in use. Process 760574 has 332.00 MiB memory in use. Process 760908 has 332.00 MiB memory in use. Process 761223 has 332.00 MiB memory in use. Process 761507 has 332.00 MiB memory in use. Process 761784 has 332.00 MiB memory in use. Process 762065 has 332.00 MiB memory in use. Process 762398 has 332.00 MiB memory in use. Process 762712 has 332.00 MiB memory in use. Process 763000 has 332.00 MiB memory in use. Process 763207 has 332.00 MiB memory in use. Process 763626 has 332.00 MiB memory in use. Process 763813 has 332.00 MiB memory in use. Process 764099 has 62.00 MiB memory in use. Process 764277 has 332.00 MiB memory in use. Process 764470 has 332.00 MiB memory in use. Process 764800 has 332.00 MiB memory in use. Process 765270 has 332.00 MiB memory in use. Process 765495 has 332.00 MiB memory in use. Process 765996 has 332.00 MiB memory in use. Process 766580 has 332.00 MiB memory in use. Process 766668 has 332.00 MiB memory in use. Process 767492 has 332.00 MiB memory in use. Process 767044 has 332.00 MiB memory in use. Process 767720 has 332.00 MiB memory in use. Process 767797 has 332.00 MiB memory in use. Process 768541 has 332.00 MiB memory in use. Process 769125 has 332.00 MiB memory in use. Process 768850 has 332.00 MiB memory in use. Process 769686 has 332.00 MiB memory in use. Process 769459 has 332.00 MiB memory in use. Process 769827 has 332.00 MiB memory in use. Process 770524 has 332.00 MiB memory in use. Process 770888 has 332.00 MiB memory in use. Process 770316 has 332.00 MiB memory in use. Process 771275 has 332.00 MiB memory in use. Process 771105 has 332.00 MiB memory in use. Process 771771 has 332.00 MiB memory in use. Process 771619 has 332.00 MiB memory in use. Process 772148 has 332.00 MiB memory in use. Process 772899 has 332.00 MiB memory in use. Process 772664 has 332.00 MiB memory in use. Process 773176 has 332.00 MiB memory in use. Process 773279 has 332.00 MiB memory in use. Process 773623 has 332.00 MiB memory in use. Process 774056 has 332.00 MiB memory in use. Process 774461 has 332.00 MiB memory in use. Process 774726 has 332.00 MiB memory in use. Process 774904 has 332.00 MiB memory in use. Process 775026 has 332.00 MiB memory in use. Process 775459 has 332.00 MiB memory in use. Process 775737 has 332.00 MiB memory in use. Process 775847 has 332.00 MiB memory in use. Process 776237 has 332.00 MiB memory in use. Process 776606 has 332.00 MiB memory in use. Process 776978 has 332.00 MiB memory in use. Process 776886 has 332.00 MiB memory in use. Process 777350 has 332.00 MiB memory in use. Process 777531 has 332.00 MiB memory in use. Process 879266 has 332.00 MiB memory in use. Of the allocated memory 18.12 MiB is allocated by PyTorch, and 3.88 MiB is reserved by PyTorch but unallocated. If reserved but unallocated memory is large try setting PYTORCH_CUDA_ALLOC_CONF=expandable_segments:True to avoid fragmentation.  See documentation for Memory Management  (https://pytorch.org/docs/stable/notes/cuda.html#environment-variables)

Error type: RuntimeError
==================================================

=== SUCCESS LOG - 2025-10-15 06:29:06 ===
Input file: /data/retarget/locomotion/raw/AMASS_SMPLXG/HDM05/bk/HDM_bk_03-03_02_120_stageii.npz
Output file: ../robot/ik_based/pkl/010360.pkl
Robot type: unitree_g1
Processing time: 246.90 seconds

STEP-BY-STEP TIMING:
  Step 1 - Load SMPLX:        24.41s
  Step 2 - Align FPS:         26.21s
  Step 3 - Init Retarget:     0.73s
  Step 4 - Init Visualization: 0.00s
  Step 5 - Process Frames:    194.86s (avg: 0.155s/frame)
  Step 6 - Convert Arrays:    0.05s
  Step 7 - Forward Kinematics: 0.25s
  Step 8 - Save Data:         0.11s
Status: SUCCESS
==================================================

=== ERROR LOG - 2025-10-15 06:29:07 ===
Input file: /data/retarget/locomotion/raw/AMASS_SMPLXG/HDM05/bk/HDM_bk_03-03_02_120_stageii.npz
Output file: ../robot/ik_based/pkl/010360.pkl
Robot type: unitree_g1
Processing time: 248.26 seconds

STEP-BY-STEP TIMING (FAILED):
  Load Smplx: 24.68s
  Align Fps: 30.04s
  Init Retarget: 0.94s
  Init Visualization: 0.00s
  Process Frames: 192.26s (avg: 0.153s/frame)
  Convert Arrays: 0.04s
Error message: The following operation failed in the TorchScript interpreter.
Traceback of TorchScript (most recent call last):
  File "/data/retarget/locomotion/GMR/general_motion_retargeting/torch_utils.py", line 136, in quat_mul
    z = qq - zz + (z1 + y1) * (w2 - x2)

    quat = torch.stack([x, y, z, w], dim=-1).view(shape)
           ~~~~~~~~~~~ <--- HERE

    return quat
RuntimeError: CUDA out of memory. Tried to allocate 2.00 MiB. GPU 0 has a total capacity of 23.58 GiB of which 74.31 MiB is free. Process 106491 has 332.00 MiB memory in use. Process 381781 has 332.00 MiB memory in use. Including non-PyTorch memory, this process has 336.00 MiB memory in use. Process 651323 has 340.00 MiB memory in use. Process 651495 has 338.00 MiB memory in use. Process 652122 has 336.00 MiB memory in use. Process 758984 has 332.00 MiB memory in use. Process 759061 has 332.00 MiB memory in use. Process 759140 has 332.00 MiB memory in use. Process 759277 has 332.00 MiB memory in use. Process 759587 has 332.00 MiB memory in use. Process 759754 has 332.00 MiB memory in use. Process 760292 has 332.00 MiB memory in use. Process 760574 has 332.00 MiB memory in use. Process 760908 has 332.00 MiB memory in use. Process 761223 has 332.00 MiB memory in use. Process 761507 has 332.00 MiB memory in use. Process 761784 has 332.00 MiB memory in use. Process 762065 has 332.00 MiB memory in use. Process 762398 has 332.00 MiB memory in use. Process 762712 has 332.00 MiB memory in use. Process 763000 has 332.00 MiB memory in use. Process 763207 has 332.00 MiB memory in use. Process 763626 has 332.00 MiB memory in use. Process 763813 has 332.00 MiB memory in use. Process 764099 has 62.00 MiB memory in use. Process 764277 has 332.00 MiB memory in use. Process 764470 has 332.00 MiB memory in use. Process 764800 has 332.00 MiB memory in use. Process 765270 has 332.00 MiB memory in use. Process 765495 has 332.00 MiB memory in use. Process 765996 has 332.00 MiB memory in use. Process 766580 has 332.00 MiB memory in use. Process 766668 has 332.00 MiB memory in use. Process 767492 has 332.00 MiB memory in use. Process 767044 has 332.00 MiB memory in use. Process 767720 has 332.00 MiB memory in use. Process 767797 has 332.00 MiB memory in use. Process 768541 has 332.00 MiB memory in use. Process 769125 has 332.00 MiB memory in use. Process 768850 has 332.00 MiB memory in use. Process 769686 has 332.00 MiB memory in use. Process 769459 has 332.00 MiB memory in use. Process 769827 has 332.00 MiB memory in use. Process 770524 has 332.00 MiB memory in use. Process 770888 has 332.00 MiB memory in use. Process 770316 has 332.00 MiB memory in use. Process 771275 has 332.00 MiB memory in use. Process 771105 has 332.00 MiB memory in use. Process 771771 has 332.00 MiB memory in use. Process 771619 has 332.00 MiB memory in use. Process 772148 has 332.00 MiB memory in use. Process 772899 has 332.00 MiB memory in use. Process 772664 has 332.00 MiB memory in use. Process 773176 has 332.00 MiB memory in use. Process 773279 has 332.00 MiB memory in use. Process 773623 has 332.00 MiB memory in use. Process 774056 has 332.00 MiB memory in use. Process 774461 has 332.00 MiB memory in use. Process 774726 has 332.00 MiB memory in use. Process 774904 has 332.00 MiB memory in use. Process 775026 has 332.00 MiB memory in use. Process 775459 has 332.00 MiB memory in use. Process 775737 has 332.00 MiB memory in use. Process 775847 has 332.00 MiB memory in use. Process 776237 has 332.00 MiB memory in use. Process 776606 has 332.00 MiB memory in use. Process 776978 has 332.00 MiB memory in use. Process 776886 has 332.00 MiB memory in use. Process 777350 has 332.00 MiB memory in use. Process 777531 has 332.00 MiB memory in use. Process 879266 has 332.00 MiB memory in use. Of the allocated memory 18.24 MiB is allocated by PyTorch, and 3.76 MiB is reserved by PyTorch but unallocated. If reserved but unallocated memory is large try setting PYTORCH_CUDA_ALLOC_CONF=expandable_segments:True to avoid fragmentation.  See documentation for Memory Management  (https://pytorch.org/docs/stable/notes/cuda.html#environment-variables)

Error type: RuntimeError
==================================================

=== ERROR LOG - 2025-10-15 06:29:07 ===
Input file: /data/retarget/locomotion/raw/AMASS_SMPLXG/HDM05/bk/HDM_bk_03-03_03_120_stageii.npz
Output file: ../robot/ik_based/pkl/010361.pkl
Robot type: unitree_g1
Processing time: 238.10 seconds

STEP-BY-STEP TIMING (FAILED):
  Load Smplx: 17.52s
  Align Fps: 29.70s
  Init Retarget: 0.97s
  Init Visualization: 0.00s
  Process Frames: 189.48s (avg: 0.158s/frame)
  Convert Arrays: 0.01s
  Forward Kinematics: 0.22s
Error message: CUDA out of memory. Tried to allocate 2.00 MiB. GPU 0 has a total capacity of 23.58 GiB of which 74.31 MiB is free. Process 106491 has 332.00 MiB memory in use. Process 381781 has 332.00 MiB memory in use. Process 651230 has 336.00 MiB memory in use. Including non-PyTorch memory, this process has 340.00 MiB memory in use. Process 651495 has 338.00 MiB memory in use. Process 652122 has 336.00 MiB memory in use. Process 758984 has 332.00 MiB memory in use. Process 759061 has 332.00 MiB memory in use. Process 759140 has 332.00 MiB memory in use. Process 759277 has 332.00 MiB memory in use. Process 759587 has 332.00 MiB memory in use. Process 759754 has 332.00 MiB memory in use. Process 760292 has 332.00 MiB memory in use. Process 760574 has 332.00 MiB memory in use. Process 760908 has 332.00 MiB memory in use. Process 761223 has 332.00 MiB memory in use. Process 761507 has 332.00 MiB memory in use. Process 761784 has 332.00 MiB memory in use. Process 762065 has 332.00 MiB memory in use. Process 762398 has 332.00 MiB memory in use. Process 762712 has 332.00 MiB memory in use. Process 763000 has 332.00 MiB memory in use. Process 763207 has 332.00 MiB memory in use. Process 763626 has 332.00 MiB memory in use. Process 763813 has 332.00 MiB memory in use. Process 764099 has 62.00 MiB memory in use. Process 764277 has 332.00 MiB memory in use. Process 764470 has 332.00 MiB memory in use. Process 764800 has 332.00 MiB memory in use. Process 765270 has 332.00 MiB memory in use. Process 765495 has 332.00 MiB memory in use. Process 765996 has 332.00 MiB memory in use. Process 766580 has 332.00 MiB memory in use. Process 766668 has 332.00 MiB memory in use. Process 767492 has 332.00 MiB memory in use. Process 767044 has 332.00 MiB memory in use. Process 767720 has 332.00 MiB memory in use. Process 767797 has 332.00 MiB memory in use. Process 768541 has 332.00 MiB memory in use. Process 769125 has 332.00 MiB memory in use. Process 768850 has 332.00 MiB memory in use. Process 769686 has 332.00 MiB memory in use. Process 769459 has 332.00 MiB memory in use. Process 769827 has 332.00 MiB memory in use. Process 770524 has 332.00 MiB memory in use. Process 770888 has 332.00 MiB memory in use. Process 770316 has 332.00 MiB memory in use. Process 771275 has 332.00 MiB memory in use. Process 771105 has 332.00 MiB memory in use. Process 771771 has 332.00 MiB memory in use. Process 771619 has 332.00 MiB memory in use. Process 772148 has 332.00 MiB memory in use. Process 772899 has 332.00 MiB memory in use. Process 772664 has 332.00 MiB memory in use. Process 773176 has 332.00 MiB memory in use. Process 773279 has 332.00 MiB memory in use. Process 773623 has 332.00 MiB memory in use. Process 774056 has 332.00 MiB memory in use. Process 774461 has 332.00 MiB memory in use. Process 774726 has 332.00 MiB memory in use. Process 774904 has 332.00 MiB memory in use. Process 775026 has 332.00 MiB memory in use. Process 775459 has 332.00 MiB memory in use. Process 775737 has 332.00 MiB memory in use. Process 775847 has 332.00 MiB memory in use. Process 776237 has 332.00 MiB memory in use. Process 776606 has 332.00 MiB memory in use. Process 776978 has 332.00 MiB memory in use. Process 776886 has 332.00 MiB memory in use. Process 777350 has 332.00 MiB memory in use. Process 777531 has 332.00 MiB memory in use. Process 879266 has 332.00 MiB memory in use. Of the allocated memory 21.48 MiB is allocated by PyTorch, and 4.52 MiB is reserved by PyTorch but unallocated. If reserved but unallocated memory is large try setting PYTORCH_CUDA_ALLOC_CONF=expandable_segments:True to avoid fragmentation.  See documentation for Memory Management  (https://pytorch.org/docs/stable/notes/cuda.html#environment-variables)
Error type: OutOfMemoryError
==================================================
