
=== SKIPPED (ALREADY EXISTS) - 2025-10-14 21:39:45 ===
File index: 008030
Input file: /data/retarget/locomotion/raw/AMASS_SMPLXG/EKUT/265/SLP104_stageii.npz
Output file: ../robot/ik_based/pkl/008030.pkl
Status: SKIPPED (ALREADY EXISTS)
==================================================

=== SKIPPED (ALREADY EXISTS) - 2025-10-14 21:39:45 ===
File index: 008031
Input file: /data/retarget/locomotion/raw/AMASS_SMPLXG/EKUT/265/SLP105_stageii.npz
Output file: ../robot/ik_based/pkl/008031.pkl
Status: SKIPPED (ALREADY EXISTS)
==================================================

=== SKIPPED (ALREADY EXISTS) - 2025-10-14 21:39:45 ===
File index: 008032
Input file: /data/retarget/locomotion/raw/AMASS_SMPLXG/EKUT/265/SLP201_stageii.npz
Output file: ../robot/ik_based/pkl/008032.pkl
Status: SKIPPED (ALREADY EXISTS)
==================================================

=== SKIPPED (ALREADY EXISTS) - 2025-10-14 21:39:45 ===
File index: 008033
Input file: /data/retarget/locomotion/raw/AMASS_SMPLXG/EKUT/265/SLP202_stageii.npz
Output file: ../robot/ik_based/pkl/008033.pkl
Status: SKIPPED (ALREADY EXISTS)
==================================================

=== SKIPPED (ALREADY EXISTS) - 2025-10-14 21:39:45 ===
File index: 008034
Input file: /data/retarget/locomotion/raw/AMASS_SMPLXG/EKUT/265/SLP203_stageii.npz
Output file: ../robot/ik_based/pkl/008034.pkl
Status: SKIPPED (ALREADY EXISTS)
==================================================

=== SKIPPED (ALREADY EXISTS) - 2025-10-14 21:39:45 ===
File index: 008035
Input file: /data/retarget/locomotion/raw/AMASS_SMPLXG/EKUT/265/SLP204_stageii.npz
Output file: ../robot/ik_based/pkl/008035.pkl
Status: SKIPPED (ALREADY EXISTS)
==================================================

=== SKIPPED (ALREADY EXISTS) - 2025-10-14 21:39:45 ===
File index: 008036
Input file: /data/retarget/locomotion/raw/AMASS_SMPLXG/EKUT/265/SLP205_stageii.npz
Output file: ../robot/ik_based/pkl/008036.pkl
Status: SKIPPED (ALREADY EXISTS)
==================================================

=== SKIPPED (ALREADY EXISTS) - 2025-10-14 21:39:45 ===
File index: 008037
Input file: /data/retarget/locomotion/raw/AMASS_SMPLXG/EKUT/265/SLP302_stageii.npz
Output file: ../robot/ik_based/pkl/008037.pkl
Status: SKIPPED (ALREADY EXISTS)
==================================================

=== SKIPPED (ALREADY EXISTS) - 2025-10-14 21:39:45 ===
File index: 008038
Input file: /data/retarget/locomotion/raw/AMASS_SMPLXG/EKUT/265/SLP303_stageii.npz
Output file: ../robot/ik_based/pkl/008038.pkl
Status: SKIPPED (ALREADY EXISTS)
==================================================

=== SKIPPED (ALREADY EXISTS) - 2025-10-14 21:39:45 ===
File index: 008039
Input file: /data/retarget/locomotion/raw/AMASS_SMPLXG/EKUT/265/SLP304_stageii.npz
Output file: ../robot/ik_based/pkl/008039.pkl
Status: SKIPPED (ALREADY EXISTS)
==================================================

=== SKIPPED (ALREADY EXISTS) - 2025-10-14 21:39:45 ===
File index: 008040
Input file: /data/retarget/locomotion/raw/AMASS_SMPLXG/EKUT/265/SLP305_stageii.npz
Output file: ../robot/ik_based/pkl/008040.pkl
Status: SKIPPED (ALREADY EXISTS)
==================================================

=== SKIPPED (ALREADY EXISTS) - 2025-10-14 21:39:45 ===
File index: 008041
Input file: /data/retarget/locomotion/raw/AMASS_SMPLXG/EKUT/265/SLPD101_stageii.npz
Output file: ../robot/ik_based/pkl/008041.pkl
Status: SKIPPED (ALREADY EXISTS)
==================================================

=== SKIPPED (ALREADY EXISTS) - 2025-10-14 21:39:45 ===
File index: 008042
Input file: /data/retarget/locomotion/raw/AMASS_SMPLXG/EKUT/265/SLPD102_stageii.npz
Output file: ../robot/ik_based/pkl/008042.pkl
Status: SKIPPED (ALREADY EXISTS)
==================================================

=== SKIPPED (ALREADY EXISTS) - 2025-10-14 21:39:45 ===
File index: 008043
Input file: /data/retarget/locomotion/raw/AMASS_SMPLXG/EKUT/265/SLPD103_stageii.npz
Output file: ../robot/ik_based/pkl/008043.pkl
Status: SKIPPED (ALREADY EXISTS)
==================================================

=== SKIPPED (ALREADY EXISTS) - 2025-10-14 21:39:45 ===
File index: 008044
Input file: /data/retarget/locomotion/raw/AMASS_SMPLXG/EKUT/265/SLPD104_stageii.npz
Output file: ../robot/ik_based/pkl/008044.pkl
Status: SKIPPED (ALREADY EXISTS)
==================================================

=== SKIPPED (ALREADY EXISTS) - 2025-10-14 21:39:45 ===
File index: 008045
Input file: /data/retarget/locomotion/raw/AMASS_SMPLXG/EKUT/265/SLPD105_stageii.npz
Output file: ../robot/ik_based/pkl/008045.pkl
Status: SKIPPED (ALREADY EXISTS)
==================================================

=== SKIPPED (ALREADY EXISTS) - 2025-10-14 21:39:45 ===
File index: 008046
Input file: /data/retarget/locomotion/raw/AMASS_SMPLXG/EKUT/265/SLPD201_stageii.npz
Output file: ../robot/ik_based/pkl/008046.pkl
Status: SKIPPED (ALREADY EXISTS)
==================================================

=== SKIPPED (ALREADY EXISTS) - 2025-10-14 21:39:45 ===
File index: 008047
Input file: /data/retarget/locomotion/raw/AMASS_SMPLXG/EKUT/265/SLPD202_stageii.npz
Output file: ../robot/ik_based/pkl/008047.pkl
Status: SKIPPED (ALREADY EXISTS)
==================================================

=== SKIPPED (ALREADY EXISTS) - 2025-10-14 21:39:45 ===
File index: 008048
Input file: /data/retarget/locomotion/raw/AMASS_SMPLXG/EKUT/265/SLPD203_stageii.npz
Output file: ../robot/ik_based/pkl/008048.pkl
Status: SKIPPED (ALREADY EXISTS)
==================================================

=== SKIPPED (ALREADY EXISTS) - 2025-10-14 21:39:45 ===
File index: 008049
Input file: /data/retarget/locomotion/raw/AMASS_SMPLXG/EKUT/265/SLPD204_stageii.npz
Output file: ../robot/ik_based/pkl/008049.pkl
Status: SKIPPED (ALREADY EXISTS)
==================================================

=== SKIPPED (ALREADY EXISTS) - 2025-10-14 21:39:45 ===
File index: 008050
Input file: /data/retarget/locomotion/raw/AMASS_SMPLXG/EKUT/265/SLPD205_stageii.npz
Output file: ../robot/ik_based/pkl/008050.pkl
Status: SKIPPED (ALREADY EXISTS)
==================================================

=== SKIPPED (ALREADY EXISTS) - 2025-10-14 21:39:45 ===
File index: 008051
Input file: /data/retarget/locomotion/raw/AMASS_SMPLXG/EKUT/265/SLPD301_stageii.npz
Output file: ../robot/ik_based/pkl/008051.pkl
Status: SKIPPED (ALREADY EXISTS)
==================================================

=== SKIPPED (ALREADY EXISTS) - 2025-10-14 21:39:45 ===
File index: 008052
Input file: /data/retarget/locomotion/raw/AMASS_SMPLXG/EKUT/265/SLPD302_stageii.npz
Output file: ../robot/ik_based/pkl/008052.pkl
Status: SKIPPED (ALREADY EXISTS)
==================================================

=== SKIPPED (ALREADY EXISTS) - 2025-10-14 21:39:45 ===
File index: 008053
Input file: /data/retarget/locomotion/raw/AMASS_SMPLXG/EKUT/265/SLPD303_stageii.npz
Output file: ../robot/ik_based/pkl/008053.pkl
Status: SKIPPED (ALREADY EXISTS)
==================================================

=== SKIPPED (ALREADY EXISTS) - 2025-10-14 21:39:45 ===
File index: 008054
Input file: /data/retarget/locomotion/raw/AMASS_SMPLXG/EKUT/265/SLPD304_stageii.npz
Output file: ../robot/ik_based/pkl/008054.pkl
Status: SKIPPED (ALREADY EXISTS)
==================================================

=== SKIPPED (ALREADY EXISTS) - 2025-10-14 21:39:45 ===
File index: 008055
Input file: /data/retarget/locomotion/raw/AMASS_SMPLXG/EKUT/265/SLPD305_stageii.npz
Output file: ../robot/ik_based/pkl/008055.pkl
Status: SKIPPED (ALREADY EXISTS)
==================================================

=== SKIPPED (ALREADY EXISTS) - 2025-10-14 21:39:45 ===
File index: 008056
Input file: /data/retarget/locomotion/raw/AMASS_SMPLXG/EKUT/265/SS1D102_stageii.npz
Output file: ../robot/ik_based/pkl/008056.pkl
Status: SKIPPED (ALREADY EXISTS)
==================================================

=== SKIPPED (ALREADY EXISTS) - 2025-10-14 21:39:45 ===
File index: 008057
Input file: /data/retarget/locomotion/raw/AMASS_SMPLXG/EKUT/265/SS1D103_stageii.npz
Output file: ../robot/ik_based/pkl/008057.pkl
Status: SKIPPED (ALREADY EXISTS)
==================================================

=== SKIPPED (ALREADY EXISTS) - 2025-10-14 21:39:45 ===
File index: 008058
Input file: /data/retarget/locomotion/raw/AMASS_SMPLXG/EKUT/265/SS1D105_stageii.npz
Output file: ../robot/ik_based/pkl/008058.pkl
Status: SKIPPED (ALREADY EXISTS)
==================================================

=== SKIPPED (ALREADY EXISTS) - 2025-10-14 21:39:45 ===
File index: 008059
Input file: /data/retarget/locomotion/raw/AMASS_SMPLXG/EKUT/265/SS1D106_stageii.npz
Output file: ../robot/ik_based/pkl/008059.pkl
Status: SKIPPED (ALREADY EXISTS)
==================================================

=== SKIPPED (ALREADY EXISTS) - 2025-10-14 21:39:45 ===
File index: 008060
Input file: /data/retarget/locomotion/raw/AMASS_SMPLXG/EKUT/265/SS1D107_stageii.npz
Output file: ../robot/ik_based/pkl/008060.pkl
Status: SKIPPED (ALREADY EXISTS)
==================================================

=== SKIPPED (ALREADY EXISTS) - 2025-10-14 21:39:45 ===
File index: 008061
Input file: /data/retarget/locomotion/raw/AMASS_SMPLXG/EKUT/265/SS1D108_stageii.npz
Output file: ../robot/ik_based/pkl/008061.pkl
Status: SKIPPED (ALREADY EXISTS)
==================================================

=== SKIPPED (ALREADY EXISTS) - 2025-10-14 21:39:45 ===
File index: 008062
Input file: /data/retarget/locomotion/raw/AMASS_SMPLXG/EKUT/265/SS2D101_stageii.npz
Output file: ../robot/ik_based/pkl/008062.pkl
Status: SKIPPED (ALREADY EXISTS)
==================================================

=== SKIPPED (ALREADY EXISTS) - 2025-10-14 21:39:45 ===
File index: 008063
Input file: /data/retarget/locomotion/raw/AMASS_SMPLXG/EKUT/265/SS2D102_stageii.npz
Output file: ../robot/ik_based/pkl/008063.pkl
Status: SKIPPED (ALREADY EXISTS)
==================================================

=== SKIPPED (ALREADY EXISTS) - 2025-10-14 21:39:45 ===
File index: 008064
Input file: /data/retarget/locomotion/raw/AMASS_SMPLXG/EKUT/265/SS2D103_stageii.npz
Output file: ../robot/ik_based/pkl/008064.pkl
Status: SKIPPED (ALREADY EXISTS)
==================================================

=== SKIPPED (ALREADY EXISTS) - 2025-10-14 21:39:45 ===
File index: 008065
Input file: /data/retarget/locomotion/raw/AMASS_SMPLXG/EKUT/265/SS2D104_stageii.npz
Output file: ../robot/ik_based/pkl/008065.pkl
Status: SKIPPED (ALREADY EXISTS)
==================================================

=== SKIPPED (ALREADY EXISTS) - 2025-10-14 21:39:45 ===
File index: 008066
Input file: /data/retarget/locomotion/raw/AMASS_SMPLXG/EKUT/265/SS2D105_stageii.npz
Output file: ../robot/ik_based/pkl/008066.pkl
Status: SKIPPED (ALREADY EXISTS)
==================================================

=== SKIPPED (ALREADY EXISTS) - 2025-10-14 21:39:45 ===
File index: 008067
Input file: /data/retarget/locomotion/raw/AMASS_SMPLXG/EKUT/265/TPose_stageii.npz
Output file: ../robot/ik_based/pkl/008067.pkl
Status: SKIPPED (ALREADY EXISTS)
==================================================

=== SKIPPED (ALREADY EXISTS) - 2025-10-14 21:39:45 ===
File index: 008068
Input file: /data/retarget/locomotion/raw/AMASS_SMPLXG/EKUT/265/WSDF01_stageii.npz
Output file: ../robot/ik_based/pkl/008068.pkl
Status: SKIPPED (ALREADY EXISTS)
==================================================

=== SKIPPED (ALREADY EXISTS) - 2025-10-14 21:39:45 ===
File index: 008069
Input file: /data/retarget/locomotion/raw/AMASS_SMPLXG/EKUT/265/WSDF02_stageii.npz
Output file: ../robot/ik_based/pkl/008069.pkl
Status: SKIPPED (ALREADY EXISTS)
==================================================

=== SKIPPED (ALREADY EXISTS) - 2025-10-14 21:39:45 ===
File index: 008070
Input file: /data/retarget/locomotion/raw/AMASS_SMPLXG/EKUT/265/WSDF03_stageii.npz
Output file: ../robot/ik_based/pkl/008070.pkl
Status: SKIPPED (ALREADY EXISTS)
==================================================

=== SKIPPED (ALREADY EXISTS) - 2025-10-14 21:39:45 ===
File index: 008071
Input file: /data/retarget/locomotion/raw/AMASS_SMPLXG/EKUT/265/WSDF04_stageii.npz
Output file: ../robot/ik_based/pkl/008071.pkl
Status: SKIPPED (ALREADY EXISTS)
==================================================

=== SKIPPED (ALREADY EXISTS) - 2025-10-14 21:39:45 ===
File index: 008072
Input file: /data/retarget/locomotion/raw/AMASS_SMPLXG/EKUT/265/WSDF05_stageii.npz
Output file: ../robot/ik_based/pkl/008072.pkl
Status: SKIPPED (ALREADY EXISTS)
==================================================

=== SKIPPED (ALREADY EXISTS) - 2025-10-14 21:39:45 ===
File index: 008073
Input file: /data/retarget/locomotion/raw/AMASS_SMPLXG/EKUT/265/WSTR01_stageii.npz
Output file: ../robot/ik_based/pkl/008073.pkl
Status: SKIPPED (ALREADY EXISTS)
==================================================

=== SKIPPED (ALREADY EXISTS) - 2025-10-14 21:39:45 ===
File index: 008074
Input file: /data/retarget/locomotion/raw/AMASS_SMPLXG/EKUT/265/WSTR02_stageii.npz
Output file: ../robot/ik_based/pkl/008074.pkl
Status: SKIPPED (ALREADY EXISTS)
==================================================

=== SKIPPED (ALREADY EXISTS) - 2025-10-14 21:39:45 ===
File index: 008075
Input file: /data/retarget/locomotion/raw/AMASS_SMPLXG/EKUT/265/WSTR03_stageii.npz
Output file: ../robot/ik_based/pkl/008075.pkl
Status: SKIPPED (ALREADY EXISTS)
==================================================

=== SKIPPED (ALREADY EXISTS) - 2025-10-14 21:39:45 ===
File index: 008076
Input file: /data/retarget/locomotion/raw/AMASS_SMPLXG/EKUT/265/WSTR04_stageii.npz
Output file: ../robot/ik_based/pkl/008076.pkl
Status: SKIPPED (ALREADY EXISTS)
==================================================

=== SKIPPED (ALREADY EXISTS) - 2025-10-14 21:39:45 ===
File index: 008077
Input file: /data/retarget/locomotion/raw/AMASS_SMPLXG/EKUT/265/WSTR05_stageii.npz
Output file: ../robot/ik_based/pkl/008077.pkl
Status: SKIPPED (ALREADY EXISTS)
==================================================

=== SKIPPED (ALREADY EXISTS) - 2025-10-14 21:39:45 ===
File index: 008078
Input file: /data/retarget/locomotion/raw/AMASS_SMPLXG/EKUT/265/WSUF01_stageii.npz
Output file: ../robot/ik_based/pkl/008078.pkl
Status: SKIPPED (ALREADY EXISTS)
==================================================

=== SKIPPED (ALREADY EXISTS) - 2025-10-14 21:39:45 ===
File index: 008079
Input file: /data/retarget/locomotion/raw/AMASS_SMPLXG/EKUT/265/WSUF02_stageii.npz
Output file: ../robot/ik_based/pkl/008079.pkl
Status: SKIPPED (ALREADY EXISTS)
==================================================

=== SKIPPED (ALREADY EXISTS) - 2025-10-14 21:39:45 ===
File index: 008080
Input file: /data/retarget/locomotion/raw/AMASS_SMPLXG/EKUT/265/WSUF03_stageii.npz
Output file: ../robot/ik_based/pkl/008080.pkl
Status: SKIPPED (ALREADY EXISTS)
==================================================

=== SKIPPED (ALREADY EXISTS) - 2025-10-14 21:39:45 ===
File index: 008081
Input file: /data/retarget/locomotion/raw/AMASS_SMPLXG/EKUT/265/WSUF04_stageii.npz
Output file: ../robot/ik_based/pkl/008081.pkl
Status: SKIPPED (ALREADY EXISTS)
==================================================

=== SKIPPED (ALREADY EXISTS) - 2025-10-14 21:39:45 ===
File index: 008082
Input file: /data/retarget/locomotion/raw/AMASS_SMPLXG/EKUT/265/WSUF05_stageii.npz
Output file: ../robot/ik_based/pkl/008082.pkl
Status: SKIPPED (ALREADY EXISTS)
==================================================

=== ERROR LOG - 2025-10-14 21:39:46 ===
Input file: /data/retarget/locomotion/raw/AMASS_SMPLXG/EKUT/265/male_stagei.npz
Output file: ../robot/ik_based/pkl/008083.pkl
Robot type: unitree_g1
Processing time: 0.80 seconds
Error message: 'pose_body is not a file in the archive'
Error type: KeyError
==================================================

=== FILE FAILURE - 2025-10-14 21:39:46 ===
File index: 008083
File number: 54/9727
Input file: /data/retarget/locomotion/raw/AMASS_SMPLXG/EKUT/265/male_stagei.npz
Output file: ../robot/ik_based/pkl/008083.pkl
Processing time: 0.80 seconds
Total file time: 0.95 seconds
Status: FAILED
==================================================

=== SKIPPED (ALREADY EXISTS) - 2025-10-14 21:39:46 ===
File index: 008084
Input file: /data/retarget/locomotion/raw/AMASS_SMPLXG/EKUT/300/PushBK_01_stageii.npz
Output file: ../robot/ik_based/pkl/008084.pkl
Status: SKIPPED (ALREADY EXISTS)
==================================================

=== SKIPPED (ALREADY EXISTS) - 2025-10-14 21:39:46 ===
File index: 008085
Input file: /data/retarget/locomotion/raw/AMASS_SMPLXG/EKUT/300/PushBK_04_stageii.npz
Output file: ../robot/ik_based/pkl/008085.pkl
Status: SKIPPED (ALREADY EXISTS)
==================================================

=== SKIPPED (ALREADY EXISTS) - 2025-10-14 21:39:46 ===
File index: 008086
Input file: /data/retarget/locomotion/raw/AMASS_SMPLXG/EKUT/300/PushBK_05_stageii.npz
Output file: ../robot/ik_based/pkl/008086.pkl
Status: SKIPPED (ALREADY EXISTS)
==================================================

=== SKIPPED (ALREADY EXISTS) - 2025-10-14 21:39:46 ===
File index: 008087
Input file: /data/retarget/locomotion/raw/AMASS_SMPLXG/EKUT/300/PushBK_06_stageii.npz
Output file: ../robot/ik_based/pkl/008087.pkl
Status: SKIPPED (ALREADY EXISTS)
==================================================

=== SKIPPED (ALREADY EXISTS) - 2025-10-14 21:39:46 ===
File index: 008088
Input file: /data/retarget/locomotion/raw/AMASS_SMPLXG/EKUT/300/PushBK_07_stageii.npz
Output file: ../robot/ik_based/pkl/008088.pkl
Status: SKIPPED (ALREADY EXISTS)
==================================================

=== SKIPPED (ALREADY EXISTS) - 2025-10-14 21:39:46 ===
File index: 008089
Input file: /data/retarget/locomotion/raw/AMASS_SMPLXG/EKUT/300/PushBK_08_stageii.npz
Output file: ../robot/ik_based/pkl/008089.pkl
Status: SKIPPED (ALREADY EXISTS)
==================================================

=== SKIPPED (ALREADY EXISTS) - 2025-10-14 21:39:46 ===
File index: 008090
Input file: /data/retarget/locomotion/raw/AMASS_SMPLXG/EKUT/300/PushBK_11_stageii.npz
Output file: ../robot/ik_based/pkl/008090.pkl
Status: SKIPPED (ALREADY EXISTS)
==================================================

=== SKIPPED (ALREADY EXISTS) - 2025-10-14 21:39:46 ===
File index: 008091
Input file: /data/retarget/locomotion/raw/AMASS_SMPLXG/EKUT/300/PushBK_12_stageii.npz
Output file: ../robot/ik_based/pkl/008091.pkl
Status: SKIPPED (ALREADY EXISTS)
==================================================

=== SKIPPED (ALREADY EXISTS) - 2025-10-14 21:39:46 ===
File index: 008092
Input file: /data/retarget/locomotion/raw/AMASS_SMPLXG/EKUT/300/PushBK_13_stageii.npz
Output file: ../robot/ik_based/pkl/008092.pkl
Status: SKIPPED (ALREADY EXISTS)
==================================================

=== SKIPPED (ALREADY EXISTS) - 2025-10-14 21:39:46 ===
File index: 008093
Input file: /data/retarget/locomotion/raw/AMASS_SMPLXG/EKUT/300/PushBK_14_stageii.npz
Output file: ../robot/ik_based/pkl/008093.pkl
Status: SKIPPED (ALREADY EXISTS)
==================================================

=== SKIPPED (ALREADY EXISTS) - 2025-10-14 21:39:46 ===
File index: 008094
Input file: /data/retarget/locomotion/raw/AMASS_SMPLXG/EKUT/300/PushBK_15_stageii.npz
Output file: ../robot/ik_based/pkl/008094.pkl
Status: SKIPPED (ALREADY EXISTS)
==================================================

=== SKIPPED (ALREADY EXISTS) - 2025-10-14 21:39:46 ===
File index: 008095
Input file: /data/retarget/locomotion/raw/AMASS_SMPLXG/EKUT/300/PushBK_16_stageii.npz
Output file: ../robot/ik_based/pkl/008095.pkl
Status: SKIPPED (ALREADY EXISTS)
==================================================

=== SKIPPED (ALREADY EXISTS) - 2025-10-14 21:39:46 ===
File index: 008096
Input file: /data/retarget/locomotion/raw/AMASS_SMPLXG/EKUT/300/PushBK_17_stageii.npz
Output file: ../robot/ik_based/pkl/008096.pkl
Status: SKIPPED (ALREADY EXISTS)
==================================================

=== SKIPPED (ALREADY EXISTS) - 2025-10-14 21:39:46 ===
File index: 008097
Input file: /data/retarget/locomotion/raw/AMASS_SMPLXG/EKUT/300/PushBK_18_stageii.npz
Output file: ../robot/ik_based/pkl/008097.pkl
Status: SKIPPED (ALREADY EXISTS)
==================================================

=== SKIPPED (ALREADY EXISTS) - 2025-10-14 21:39:46 ===
File index: 008098
Input file: /data/retarget/locomotion/raw/AMASS_SMPLXG/EKUT/300/PushBK_19_stageii.npz
Output file: ../robot/ik_based/pkl/008098.pkl
Status: SKIPPED (ALREADY EXISTS)
==================================================

=== SKIPPED (ALREADY EXISTS) - 2025-10-14 21:39:46 ===
File index: 008099
Input file: /data/retarget/locomotion/raw/AMASS_SMPLXG/EKUT/300/PushBK_20_stageii.npz
Output file: ../robot/ik_based/pkl/008099.pkl
Status: SKIPPED (ALREADY EXISTS)
==================================================

=== SKIPPED (ALREADY EXISTS) - 2025-10-14 21:39:46 ===
File index: 008100
Input file: /data/retarget/locomotion/raw/AMASS_SMPLXG/EKUT/300/PushBK_21_stageii.npz
Output file: ../robot/ik_based/pkl/008100.pkl
Status: SKIPPED (ALREADY EXISTS)
==================================================

=== SKIPPED (ALREADY EXISTS) - 2025-10-14 21:39:46 ===
File index: 008101
Input file: /data/retarget/locomotion/raw/AMASS_SMPLXG/EKUT/300/PushBK_22_stageii.npz
Output file: ../robot/ik_based/pkl/008101.pkl
Status: SKIPPED (ALREADY EXISTS)
==================================================

=== SKIPPED (ALREADY EXISTS) - 2025-10-14 21:39:46 ===
File index: 008102
Input file: /data/retarget/locomotion/raw/AMASS_SMPLXG/EKUT/300/PushBK_23_stageii.npz
Output file: ../robot/ik_based/pkl/008102.pkl
Status: SKIPPED (ALREADY EXISTS)
==================================================

=== SKIPPED (ALREADY EXISTS) - 2025-10-14 21:39:46 ===
File index: 008103
Input file: /data/retarget/locomotion/raw/AMASS_SMPLXG/EKUT/300/PushBK_24_stageii.npz
Output file: ../robot/ik_based/pkl/008103.pkl
Status: SKIPPED (ALREADY EXISTS)
==================================================

=== SKIPPED (ALREADY EXISTS) - 2025-10-14 21:39:46 ===
File index: 008104
Input file: /data/retarget/locomotion/raw/AMASS_SMPLXG/EKUT/300/PushBK_25_stageii.npz
Output file: ../robot/ik_based/pkl/008104.pkl
Status: SKIPPED (ALREADY EXISTS)
==================================================

=== SKIPPED (ALREADY EXISTS) - 2025-10-14 21:39:46 ===
File index: 008105
Input file: /data/retarget/locomotion/raw/AMASS_SMPLXG/EKUT/300/PushBeamPedar_01_stageii.npz
Output file: ../robot/ik_based/pkl/008105.pkl
Status: SKIPPED (ALREADY EXISTS)
==================================================

=== SKIPPED (ALREADY EXISTS) - 2025-10-14 21:39:46 ===
File index: 008106
Input file: /data/retarget/locomotion/raw/AMASS_SMPLXG/EKUT/300/PushBeamPedar_03_stageii.npz
Output file: ../robot/ik_based/pkl/008106.pkl
Status: SKIPPED (ALREADY EXISTS)
==================================================

=== SKIPPED (ALREADY EXISTS) - 2025-10-14 21:39:46 ===
File index: 008107
Input file: /data/retarget/locomotion/raw/AMASS_SMPLXG/EKUT/300/PushBeamPedar_04_stageii.npz
Output file: ../robot/ik_based/pkl/008107.pkl
Status: SKIPPED (ALREADY EXISTS)
==================================================

=== SKIPPED (ALREADY EXISTS) - 2025-10-14 21:39:46 ===
File index: 008108
Input file: /data/retarget/locomotion/raw/AMASS_SMPLXG/EKUT/300/PushBeamPedar_06_stageii.npz
Output file: ../robot/ik_based/pkl/008108.pkl
Status: SKIPPED (ALREADY EXISTS)
==================================================

=== SKIPPED (ALREADY EXISTS) - 2025-10-14 21:39:46 ===
File index: 008109
Input file: /data/retarget/locomotion/raw/AMASS_SMPLXG/EKUT/300/PushBeamPedar_07_stageii.npz
Output file: ../robot/ik_based/pkl/008109.pkl
Status: SKIPPED (ALREADY EXISTS)
==================================================

=== SKIPPED (ALREADY EXISTS) - 2025-10-14 21:39:46 ===
File index: 008110
Input file: /data/retarget/locomotion/raw/AMASS_SMPLXG/EKUT/300/PushBeamPedar_08_stageii.npz
Output file: ../robot/ik_based/pkl/008110.pkl
Status: SKIPPED (ALREADY EXISTS)
==================================================

=== SKIPPED (ALREADY EXISTS) - 2025-10-14 21:39:46 ===
File index: 008111
Input file: /data/retarget/locomotion/raw/AMASS_SMPLXG/EKUT/300/PushBeamPedar_09_stageii.npz
Output file: ../robot/ik_based/pkl/008111.pkl
Status: SKIPPED (ALREADY EXISTS)
==================================================

=== SKIPPED (ALREADY EXISTS) - 2025-10-14 21:39:46 ===
File index: 008112
Input file: /data/retarget/locomotion/raw/AMASS_SMPLXG/EKUT/300/PushBeamPedar_10_stageii.npz
Output file: ../robot/ik_based/pkl/008112.pkl
Status: SKIPPED (ALREADY EXISTS)
==================================================

=== SKIPPED (ALREADY EXISTS) - 2025-10-14 21:39:46 ===
File index: 008113
Input file: /data/retarget/locomotion/raw/AMASS_SMPLXG/EKUT/300/PushBeamPedar_11_stageii.npz
Output file: ../robot/ik_based/pkl/008113.pkl
Status: SKIPPED (ALREADY EXISTS)
==================================================

=== SKIPPED (ALREADY EXISTS) - 2025-10-14 21:39:46 ===
File index: 008114
Input file: /data/retarget/locomotion/raw/AMASS_SMPLXG/EKUT/300/PushBeamPedar_12_stageii.npz
Output file: ../robot/ik_based/pkl/008114.pkl
Status: SKIPPED (ALREADY EXISTS)
==================================================

=== SKIPPED (ALREADY EXISTS) - 2025-10-14 21:39:46 ===
File index: 008115
Input file: /data/retarget/locomotion/raw/AMASS_SMPLXG/EKUT/300/PushBeamPedar_13_stageii.npz
Output file: ../robot/ik_based/pkl/008115.pkl
Status: SKIPPED (ALREADY EXISTS)
==================================================

=== SKIPPED (ALREADY EXISTS) - 2025-10-14 21:39:46 ===
File index: 008116
Input file: /data/retarget/locomotion/raw/AMASS_SMPLXG/EKUT/300/PushBeamPedar_14_stageii.npz
Output file: ../robot/ik_based/pkl/008116.pkl
Status: SKIPPED (ALREADY EXISTS)
==================================================

=== SKIPPED (ALREADY EXISTS) - 2025-10-14 21:39:46 ===
File index: 008117
Input file: /data/retarget/locomotion/raw/AMASS_SMPLXG/EKUT/300/PushBeamPedar_15_stageii.npz
Output file: ../robot/ik_based/pkl/008117.pkl
Status: SKIPPED (ALREADY EXISTS)
==================================================

=== SKIPPED (ALREADY EXISTS) - 2025-10-14 21:39:46 ===
File index: 008118
Input file: /data/retarget/locomotion/raw/AMASS_SMPLXG/EKUT/300/PushBeamPedar_16_stageii.npz
Output file: ../robot/ik_based/pkl/008118.pkl
Status: SKIPPED (ALREADY EXISTS)
==================================================

=== SKIPPED (ALREADY EXISTS) - 2025-10-14 21:39:46 ===
File index: 008119
Input file: /data/retarget/locomotion/raw/AMASS_SMPLXG/EKUT/300/PushBeamPedar_17_stageii.npz
Output file: ../robot/ik_based/pkl/008119.pkl
Status: SKIPPED (ALREADY EXISTS)
==================================================

=== SKIPPED (ALREADY EXISTS) - 2025-10-14 21:39:46 ===
File index: 008120
Input file: /data/retarget/locomotion/raw/AMASS_SMPLXG/EKUT/300/PushBeamPedar_18_stageii.npz
Output file: ../robot/ik_based/pkl/008120.pkl
Status: SKIPPED (ALREADY EXISTS)
==================================================

=== SKIPPED (ALREADY EXISTS) - 2025-10-14 21:39:46 ===
File index: 008121
Input file: /data/retarget/locomotion/raw/AMASS_SMPLXG/EKUT/300/PushBeamPedar_19_stageii.npz
Output file: ../robot/ik_based/pkl/008121.pkl
Status: SKIPPED (ALREADY EXISTS)
==================================================

=== SKIPPED (ALREADY EXISTS) - 2025-10-14 21:39:46 ===
File index: 008122
Input file: /data/retarget/locomotion/raw/AMASS_SMPLXG/EKUT/300/PushBeamPedar_20_stageii.npz
Output file: ../robot/ik_based/pkl/008122.pkl
Status: SKIPPED (ALREADY EXISTS)
==================================================

=== SKIPPED (ALREADY EXISTS) - 2025-10-14 21:39:46 ===
File index: 008123
Input file: /data/retarget/locomotion/raw/AMASS_SMPLXG/EKUT/300/PushBeamPedar_21_stageii.npz
Output file: ../robot/ik_based/pkl/008123.pkl
Status: SKIPPED (ALREADY EXISTS)
==================================================

=== SKIPPED (ALREADY EXISTS) - 2025-10-14 21:39:46 ===
File index: 008124
Input file: /data/retarget/locomotion/raw/AMASS_SMPLXG/EKUT/300/PushBeamPedar_22_stageii.npz
Output file: ../robot/ik_based/pkl/008124.pkl
Status: SKIPPED (ALREADY EXISTS)
==================================================

=== SKIPPED (ALREADY EXISTS) - 2025-10-14 21:39:46 ===
File index: 008125
Input file: /data/retarget/locomotion/raw/AMASS_SMPLXG/EKUT/300/PushBeamPedar_23_stageii.npz
Output file: ../robot/ik_based/pkl/008125.pkl
Status: SKIPPED (ALREADY EXISTS)
==================================================

=== SKIPPED (ALREADY EXISTS) - 2025-10-14 21:39:46 ===
File index: 008126
Input file: /data/retarget/locomotion/raw/AMASS_SMPLXG/EKUT/300/PushBeamPedar_24_stageii.npz
Output file: ../robot/ik_based/pkl/008126.pkl
Status: SKIPPED (ALREADY EXISTS)
==================================================

=== SKIPPED (ALREADY EXISTS) - 2025-10-14 21:39:46 ===
File index: 008127
Input file: /data/retarget/locomotion/raw/AMASS_SMPLXG/EKUT/300/PushBeamPedar_25_stageii.npz
Output file: ../robot/ik_based/pkl/008127.pkl
Status: SKIPPED (ALREADY EXISTS)
==================================================

=== SKIPPED (ALREADY EXISTS) - 2025-10-14 21:39:46 ===
File index: 008128
Input file: /data/retarget/locomotion/raw/AMASS_SMPLXG/EKUT/300/PushBeam_03_stageii.npz
Output file: ../robot/ik_based/pkl/008128.pkl
Status: SKIPPED (ALREADY EXISTS)
==================================================

=== SKIPPED (ALREADY EXISTS) - 2025-10-14 21:39:46 ===
File index: 008129
Input file: /data/retarget/locomotion/raw/AMASS_SMPLXG/EKUT/300/PushBeam_04_stageii.npz
Output file: ../robot/ik_based/pkl/008129.pkl
Status: SKIPPED (ALREADY EXISTS)
==================================================

=== SKIPPED (ALREADY EXISTS) - 2025-10-14 21:39:46 ===
File index: 008130
Input file: /data/retarget/locomotion/raw/AMASS_SMPLXG/EKUT/300/PushBeam_06_stageii.npz
Output file: ../robot/ik_based/pkl/008130.pkl
Status: SKIPPED (ALREADY EXISTS)
==================================================

=== SKIPPED (ALREADY EXISTS) - 2025-10-14 21:39:46 ===
File index: 008131
Input file: /data/retarget/locomotion/raw/AMASS_SMPLXG/EKUT/300/PushBeam_08_stageii.npz
Output file: ../robot/ik_based/pkl/008131.pkl
Status: SKIPPED (ALREADY EXISTS)
==================================================

=== SKIPPED (ALREADY EXISTS) - 2025-10-14 21:39:46 ===
File index: 008132
Input file: /data/retarget/locomotion/raw/AMASS_SMPLXG/EKUT/300/PushBeam_09_stageii.npz
Output file: ../robot/ik_based/pkl/008132.pkl
Status: SKIPPED (ALREADY EXISTS)
==================================================

=== SKIPPED (ALREADY EXISTS) - 2025-10-14 21:39:46 ===
File index: 008133
Input file: /data/retarget/locomotion/raw/AMASS_SMPLXG/EKUT/300/PushBeam_10_stageii.npz
Output file: ../robot/ik_based/pkl/008133.pkl
Status: SKIPPED (ALREADY EXISTS)
==================================================

=== SKIPPED (ALREADY EXISTS) - 2025-10-14 21:39:46 ===
File index: 008134
Input file: /data/retarget/locomotion/raw/AMASS_SMPLXG/EKUT/300/PushBeam_13_stageii.npz
Output file: ../robot/ik_based/pkl/008134.pkl
Status: SKIPPED (ALREADY EXISTS)
==================================================

=== SKIPPED (ALREADY EXISTS) - 2025-10-14 21:39:46 ===
File index: 008135
Input file: /data/retarget/locomotion/raw/AMASS_SMPLXG/EKUT/300/PushBeam_14_stageii.npz
Output file: ../robot/ik_based/pkl/008135.pkl
Status: SKIPPED (ALREADY EXISTS)
==================================================

=== SKIPPED (ALREADY EXISTS) - 2025-10-14 21:39:46 ===
File index: 008136
Input file: /data/retarget/locomotion/raw/AMASS_SMPLXG/EKUT/300/PushBeam_15_stageii.npz
Output file: ../robot/ik_based/pkl/008136.pkl
Status: SKIPPED (ALREADY EXISTS)
==================================================

=== SKIPPED (ALREADY EXISTS) - 2025-10-14 21:39:46 ===
File index: 008137
Input file: /data/retarget/locomotion/raw/AMASS_SMPLXG/EKUT/300/PushBeam_16_stageii.npz
Output file: ../robot/ik_based/pkl/008137.pkl
Status: SKIPPED (ALREADY EXISTS)
==================================================

=== SKIPPED (ALREADY EXISTS) - 2025-10-14 21:39:46 ===
File index: 008138
Input file: /data/retarget/locomotion/raw/AMASS_SMPLXG/EKUT/300/PushBeam_17_stageii.npz
Output file: ../robot/ik_based/pkl/008138.pkl
Status: SKIPPED (ALREADY EXISTS)
==================================================

=== SKIPPED (ALREADY EXISTS) - 2025-10-14 21:39:46 ===
File index: 008139
Input file: /data/retarget/locomotion/raw/AMASS_SMPLXG/EKUT/300/PushBeam_18_stageii.npz
Output file: ../robot/ik_based/pkl/008139.pkl
Status: SKIPPED (ALREADY EXISTS)
==================================================

=== SKIPPED (ALREADY EXISTS) - 2025-10-14 21:39:46 ===
File index: 008140
Input file: /data/retarget/locomotion/raw/AMASS_SMPLXG/EKUT/300/PushBeam_20_stageii.npz
Output file: ../robot/ik_based/pkl/008140.pkl
Status: SKIPPED (ALREADY EXISTS)
==================================================

=== SKIPPED (ALREADY EXISTS) - 2025-10-14 21:39:46 ===
File index: 008141
Input file: /data/retarget/locomotion/raw/AMASS_SMPLXG/EKUT/300/PushBeam_23_stageii.npz
Output file: ../robot/ik_based/pkl/008141.pkl
Status: SKIPPED (ALREADY EXISTS)
==================================================

=== SKIPPED (ALREADY EXISTS) - 2025-10-14 21:39:46 ===
File index: 008142
Input file: /data/retarget/locomotion/raw/AMASS_SMPLXG/EKUT/300/PushBeam_24_stageii.npz
Output file: ../robot/ik_based/pkl/008142.pkl
Status: SKIPPED (ALREADY EXISTS)
==================================================

=== SKIPPED (ALREADY EXISTS) - 2025-10-14 21:39:46 ===
File index: 008143
Input file: /data/retarget/locomotion/raw/AMASS_SMPLXG/EKUT/300/PushStandClosed_01_stageii.npz
Output file: ../robot/ik_based/pkl/008143.pkl
Status: SKIPPED (ALREADY EXISTS)
==================================================

=== SKIPPED (ALREADY EXISTS) - 2025-10-14 21:39:46 ===
File index: 008144
Input file: /data/retarget/locomotion/raw/AMASS_SMPLXG/EKUT/300/PushStandClosed_02_stageii.npz
Output file: ../robot/ik_based/pkl/008144.pkl
Status: SKIPPED (ALREADY EXISTS)
==================================================

=== SKIPPED (ALREADY EXISTS) - 2025-10-14 21:39:46 ===
File index: 008145
Input file: /data/retarget/locomotion/raw/AMASS_SMPLXG/EKUT/300/PushStandClosed_03_stageii.npz
Output file: ../robot/ik_based/pkl/008145.pkl
Status: SKIPPED (ALREADY EXISTS)
==================================================

=== SKIPPED (ALREADY EXISTS) - 2025-10-14 21:39:46 ===
File index: 008146
Input file: /data/retarget/locomotion/raw/AMASS_SMPLXG/EKUT/300/PushStandClosed_04_stageii.npz
Output file: ../robot/ik_based/pkl/008146.pkl
Status: SKIPPED (ALREADY EXISTS)
==================================================

=== SKIPPED (ALREADY EXISTS) - 2025-10-14 21:39:46 ===
File index: 008147
Input file: /data/retarget/locomotion/raw/AMASS_SMPLXG/EKUT/300/PushStandClosed_05_stageii.npz
Output file: ../robot/ik_based/pkl/008147.pkl
Status: SKIPPED (ALREADY EXISTS)
==================================================

=== SKIPPED (ALREADY EXISTS) - 2025-10-14 21:39:46 ===
File index: 008148
Input file: /data/retarget/locomotion/raw/AMASS_SMPLXG/EKUT/300/PushStandClosed_06_stageii.npz
Output file: ../robot/ik_based/pkl/008148.pkl
Status: SKIPPED (ALREADY EXISTS)
==================================================

=== SKIPPED (ALREADY EXISTS) - 2025-10-14 21:39:46 ===
File index: 008149
Input file: /data/retarget/locomotion/raw/AMASS_SMPLXG/EKUT/300/PushStandClosed_07_stageii.npz
Output file: ../robot/ik_based/pkl/008149.pkl
Status: SKIPPED (ALREADY EXISTS)
==================================================

=== SKIPPED (ALREADY EXISTS) - 2025-10-14 21:39:46 ===
File index: 008150
Input file: /data/retarget/locomotion/raw/AMASS_SMPLXG/EKUT/300/PushStandClosed_08_stageii.npz
Output file: ../robot/ik_based/pkl/008150.pkl
Status: SKIPPED (ALREADY EXISTS)
==================================================

=== SKIPPED (ALREADY EXISTS) - 2025-10-14 21:39:46 ===
File index: 008151
Input file: /data/retarget/locomotion/raw/AMASS_SMPLXG/EKUT/300/PushStandClosed_09_stageii.npz
Output file: ../robot/ik_based/pkl/008151.pkl
Status: SKIPPED (ALREADY EXISTS)
==================================================

=== SKIPPED (ALREADY EXISTS) - 2025-10-14 21:39:46 ===
File index: 008152
Input file: /data/retarget/locomotion/raw/AMASS_SMPLXG/EKUT/300/PushStandClosed_10_stageii.npz
Output file: ../robot/ik_based/pkl/008152.pkl
Status: SKIPPED (ALREADY EXISTS)
==================================================

=== SKIPPED (ALREADY EXISTS) - 2025-10-14 21:39:46 ===
File index: 008153
Input file: /data/retarget/locomotion/raw/AMASS_SMPLXG/EKUT/300/PushStandOpen_01_stageii.npz
Output file: ../robot/ik_based/pkl/008153.pkl
Status: SKIPPED (ALREADY EXISTS)
==================================================

=== SKIPPED (ALREADY EXISTS) - 2025-10-14 21:39:46 ===
File index: 008154
Input file: /data/retarget/locomotion/raw/AMASS_SMPLXG/EKUT/300/PushStandOpen_02_stageii.npz
Output file: ../robot/ik_based/pkl/008154.pkl
Status: SKIPPED (ALREADY EXISTS)
==================================================

=== SKIPPED (ALREADY EXISTS) - 2025-10-14 21:39:46 ===
File index: 008155
Input file: /data/retarget/locomotion/raw/AMASS_SMPLXG/EKUT/300/PushStandOpen_03_stageii.npz
Output file: ../robot/ik_based/pkl/008155.pkl
Status: SKIPPED (ALREADY EXISTS)
==================================================

=== SKIPPED (ALREADY EXISTS) - 2025-10-14 21:39:46 ===
File index: 008156
Input file: /data/retarget/locomotion/raw/AMASS_SMPLXG/EKUT/300/PushStandOpen_04_stageii.npz
Output file: ../robot/ik_based/pkl/008156.pkl
Status: SKIPPED (ALREADY EXISTS)
==================================================

=== SKIPPED (ALREADY EXISTS) - 2025-10-14 21:39:46 ===
File index: 008157
Input file: /data/retarget/locomotion/raw/AMASS_SMPLXG/EKUT/300/PushStandOpen_05_stageii.npz
Output file: ../robot/ik_based/pkl/008157.pkl
Status: SKIPPED (ALREADY EXISTS)
==================================================

=== SKIPPED (ALREADY EXISTS) - 2025-10-14 21:39:46 ===
File index: 008158
Input file: /data/retarget/locomotion/raw/AMASS_SMPLXG/EKUT/300/PushStandOpen_06_stageii.npz
Output file: ../robot/ik_based/pkl/008158.pkl
Status: SKIPPED (ALREADY EXISTS)
==================================================

=== SKIPPED (ALREADY EXISTS) - 2025-10-14 21:39:46 ===
File index: 008159
Input file: /data/retarget/locomotion/raw/AMASS_SMPLXG/EKUT/300/PushStandOpen_07_stageii.npz
Output file: ../robot/ik_based/pkl/008159.pkl
Status: SKIPPED (ALREADY EXISTS)
==================================================

=== SKIPPED (ALREADY EXISTS) - 2025-10-14 21:39:46 ===
File index: 008160
Input file: /data/retarget/locomotion/raw/AMASS_SMPLXG/EKUT/300/PushStandOpen_08_stageii.npz
Output file: ../robot/ik_based/pkl/008160.pkl
Status: SKIPPED (ALREADY EXISTS)
==================================================

=== SKIPPED (ALREADY EXISTS) - 2025-10-14 21:39:46 ===
File index: 008161
Input file: /data/retarget/locomotion/raw/AMASS_SMPLXG/EKUT/300/PushStandOpen_09_stageii.npz
Output file: ../robot/ik_based/pkl/008161.pkl
Status: SKIPPED (ALREADY EXISTS)
==================================================

=== SKIPPED (ALREADY EXISTS) - 2025-10-14 21:39:46 ===
File index: 008162
Input file: /data/retarget/locomotion/raw/AMASS_SMPLXG/EKUT/300/PushStandOpen_10_stageii.npz
Output file: ../robot/ik_based/pkl/008162.pkl
Status: SKIPPED (ALREADY EXISTS)
==================================================

=== SKIPPED (ALREADY EXISTS) - 2025-10-14 21:39:46 ===
File index: 008163
Input file: /data/retarget/locomotion/raw/AMASS_SMPLXG/EKUT/300/PushStandOpen_11_stageii.npz
Output file: ../robot/ik_based/pkl/008163.pkl
Status: SKIPPED (ALREADY EXISTS)
==================================================

=== SKIPPED (ALREADY EXISTS) - 2025-10-14 21:39:46 ===
File index: 008164
Input file: /data/retarget/locomotion/raw/AMASS_SMPLXG/EKUT/300/PushStandOpen_12_stageii.npz
Output file: ../robot/ik_based/pkl/008164.pkl
Status: SKIPPED (ALREADY EXISTS)
==================================================

=== SKIPPED (ALREADY EXISTS) - 2025-10-14 21:39:46 ===
File index: 008165
Input file: /data/retarget/locomotion/raw/AMASS_SMPLXG/EKUT/300/PushStandOpen_13_stageii.npz
Output file: ../robot/ik_based/pkl/008165.pkl
Status: SKIPPED (ALREADY EXISTS)
==================================================

=== SKIPPED (ALREADY EXISTS) - 2025-10-14 21:39:46 ===
File index: 008166
Input file: /data/retarget/locomotion/raw/AMASS_SMPLXG/EKUT/300/PushStandOpen_14_stageii.npz
Output file: ../robot/ik_based/pkl/008166.pkl
Status: SKIPPED (ALREADY EXISTS)
==================================================

=== SKIPPED (ALREADY EXISTS) - 2025-10-14 21:39:46 ===
File index: 008167
Input file: /data/retarget/locomotion/raw/AMASS_SMPLXG/EKUT/300/PushStandOpen_15_stageii.npz
Output file: ../robot/ik_based/pkl/008167.pkl
Status: SKIPPED (ALREADY EXISTS)
==================================================

=== SKIPPED (ALREADY EXISTS) - 2025-10-14 21:39:46 ===
File index: 008168
Input file: /data/retarget/locomotion/raw/AMASS_SMPLXG/EKUT/300/PushStandOpen_16_stageii.npz
Output file: ../robot/ik_based/pkl/008168.pkl
Status: SKIPPED (ALREADY EXISTS)
==================================================

=== SKIPPED (ALREADY EXISTS) - 2025-10-14 21:39:46 ===
File index: 008169
Input file: /data/retarget/locomotion/raw/AMASS_SMPLXG/EKUT/300/PushStandOpen_17_stageii.npz
Output file: ../robot/ik_based/pkl/008169.pkl
Status: SKIPPED (ALREADY EXISTS)
==================================================

=== SKIPPED (ALREADY EXISTS) - 2025-10-14 21:39:46 ===
File index: 008170
Input file: /data/retarget/locomotion/raw/AMASS_SMPLXG/EKUT/300/PushStandOpen_18_stageii.npz
Output file: ../robot/ik_based/pkl/008170.pkl
Status: SKIPPED (ALREADY EXISTS)
==================================================

=== SKIPPED (ALREADY EXISTS) - 2025-10-14 21:39:46 ===
File index: 008171
Input file: /data/retarget/locomotion/raw/AMASS_SMPLXG/EKUT/300/PushStandOpen_19_stageii.npz
Output file: ../robot/ik_based/pkl/008171.pkl
Status: SKIPPED (ALREADY EXISTS)
==================================================

=== SKIPPED (ALREADY EXISTS) - 2025-10-14 21:39:46 ===
File index: 008172
Input file: /data/retarget/locomotion/raw/AMASS_SMPLXG/EKUT/300/PushStandOpen_20_stageii.npz
Output file: ../robot/ik_based/pkl/008172.pkl
Status: SKIPPED (ALREADY EXISTS)
==================================================

=== SKIPPED (ALREADY EXISTS) - 2025-10-14 21:39:46 ===
File index: 008173
Input file: /data/retarget/locomotion/raw/AMASS_SMPLXG/EKUT/300/PushStandOpen_21_stageii.npz
Output file: ../robot/ik_based/pkl/008173.pkl
Status: SKIPPED (ALREADY EXISTS)
==================================================

=== SKIPPED (ALREADY EXISTS) - 2025-10-14 21:39:46 ===
File index: 008174
Input file: /data/retarget/locomotion/raw/AMASS_SMPLXG/EKUT/300/PushStandOpen_22_stageii.npz
Output file: ../robot/ik_based/pkl/008174.pkl
Status: SKIPPED (ALREADY EXISTS)
==================================================

=== SKIPPED (ALREADY EXISTS) - 2025-10-14 21:39:46 ===
File index: 008175
Input file: /data/retarget/locomotion/raw/AMASS_SMPLXG/EKUT/300/PushStandOpen_23_stageii.npz
Output file: ../robot/ik_based/pkl/008175.pkl
Status: SKIPPED (ALREADY EXISTS)
==================================================

=== SKIPPED (ALREADY EXISTS) - 2025-10-14 21:39:46 ===
File index: 008176
Input file: /data/retarget/locomotion/raw/AMASS_SMPLXG/EKUT/300/PushStandOpen_24_stageii.npz
Output file: ../robot/ik_based/pkl/008176.pkl
Status: SKIPPED (ALREADY EXISTS)
==================================================

=== SKIPPED (ALREADY EXISTS) - 2025-10-14 21:39:46 ===
File index: 008177
Input file: /data/retarget/locomotion/raw/AMASS_SMPLXG/EKUT/300/PushStandOpen_25_stageii.npz
Output file: ../robot/ik_based/pkl/008177.pkl
Status: SKIPPED (ALREADY EXISTS)
==================================================

=== SKIPPED (ALREADY EXISTS) - 2025-10-14 21:39:46 ===
File index: 008178
Input file: /data/retarget/locomotion/raw/AMASS_SMPLXG/EKUT/300/PushStandStraightPedar_01_stageii.npz
Output file: ../robot/ik_based/pkl/008178.pkl
Status: SKIPPED (ALREADY EXISTS)
==================================================

=== SKIPPED (ALREADY EXISTS) - 2025-10-14 21:39:46 ===
File index: 008179
Input file: /data/retarget/locomotion/raw/AMASS_SMPLXG/EKUT/300/PushStandStraightPedar_02_stageii.npz
Output file: ../robot/ik_based/pkl/008179.pkl
Status: SKIPPED (ALREADY EXISTS)
==================================================

=== SKIPPED (ALREADY EXISTS) - 2025-10-14 21:39:46 ===
File index: 008180
Input file: /data/retarget/locomotion/raw/AMASS_SMPLXG/EKUT/300/PushStandStraightPedar_03_stageii.npz
Output file: ../robot/ik_based/pkl/008180.pkl
Status: SKIPPED (ALREADY EXISTS)
==================================================

=== SKIPPED (ALREADY EXISTS) - 2025-10-14 21:39:46 ===
File index: 008181
Input file: /data/retarget/locomotion/raw/AMASS_SMPLXG/EKUT/300/PushStandStraightPedar_04_stageii.npz
Output file: ../robot/ik_based/pkl/008181.pkl
Status: SKIPPED (ALREADY EXISTS)
==================================================

=== SKIPPED (ALREADY EXISTS) - 2025-10-14 21:39:46 ===
File index: 008182
Input file: /data/retarget/locomotion/raw/AMASS_SMPLXG/EKUT/300/PushStandStraightPedar_05_stageii.npz
Output file: ../robot/ik_based/pkl/008182.pkl
Status: SKIPPED (ALREADY EXISTS)
==================================================

=== SKIPPED (ALREADY EXISTS) - 2025-10-14 21:39:46 ===
File index: 008183
Input file: /data/retarget/locomotion/raw/AMASS_SMPLXG/EKUT/300/PushStandStraightPedar_06_stageii.npz
Output file: ../robot/ik_based/pkl/008183.pkl
Status: SKIPPED (ALREADY EXISTS)
==================================================

=== SKIPPED (ALREADY EXISTS) - 2025-10-14 21:39:46 ===
File index: 008184
Input file: /data/retarget/locomotion/raw/AMASS_SMPLXG/EKUT/300/PushStandStraightPedar_07_stageii.npz
Output file: ../robot/ik_based/pkl/008184.pkl
Status: SKIPPED (ALREADY EXISTS)
==================================================

=== SKIPPED (ALREADY EXISTS) - 2025-10-14 21:39:46 ===
File index: 008185
Input file: /data/retarget/locomotion/raw/AMASS_SMPLXG/EKUT/300/PushStandStraightPedar_08_stageii.npz
Output file: ../robot/ik_based/pkl/008185.pkl
Status: SKIPPED (ALREADY EXISTS)
==================================================

=== SKIPPED (ALREADY EXISTS) - 2025-10-14 21:39:46 ===
File index: 008186
Input file: /data/retarget/locomotion/raw/AMASS_SMPLXG/EKUT/300/PushStandStraightPedar_09_stageii.npz
Output file: ../robot/ik_based/pkl/008186.pkl
Status: SKIPPED (ALREADY EXISTS)
==================================================

=== SKIPPED (ALREADY EXISTS) - 2025-10-14 21:39:46 ===
File index: 008187
Input file: /data/retarget/locomotion/raw/AMASS_SMPLXG/EKUT/300/PushStandStraightPedar_10_stageii.npz
Output file: ../robot/ik_based/pkl/008187.pkl
Status: SKIPPED (ALREADY EXISTS)
==================================================

=== SKIPPED (ALREADY EXISTS) - 2025-10-14 21:39:46 ===
File index: 008188
Input file: /data/retarget/locomotion/raw/AMASS_SMPLXG/EKUT/300/PushStandStraight_01_stageii.npz
Output file: ../robot/ik_based/pkl/008188.pkl
Status: SKIPPED (ALREADY EXISTS)
==================================================

=== SKIPPED (ALREADY EXISTS) - 2025-10-14 21:39:46 ===
File index: 008189
Input file: /data/retarget/locomotion/raw/AMASS_SMPLXG/EKUT/300/PushStandStraight_02_stageii.npz
Output file: ../robot/ik_based/pkl/008189.pkl
Status: SKIPPED (ALREADY EXISTS)
==================================================

=== SKIPPED (ALREADY EXISTS) - 2025-10-14 21:39:46 ===
File index: 008190
Input file: /data/retarget/locomotion/raw/AMASS_SMPLXG/EKUT/300/PushStandStraight_03_stageii.npz
Output file: ../robot/ik_based/pkl/008190.pkl
Status: SKIPPED (ALREADY EXISTS)
==================================================

=== SKIPPED (ALREADY EXISTS) - 2025-10-14 21:39:46 ===
File index: 008191
Input file: /data/retarget/locomotion/raw/AMASS_SMPLXG/EKUT/300/PushStandStraight_04_stageii.npz
Output file: ../robot/ik_based/pkl/008191.pkl
Status: SKIPPED (ALREADY EXISTS)
==================================================

=== SKIPPED (ALREADY EXISTS) - 2025-10-14 21:39:46 ===
File index: 008192
Input file: /data/retarget/locomotion/raw/AMASS_SMPLXG/EKUT/300/PushStandStraight_05_stageii.npz
Output file: ../robot/ik_based/pkl/008192.pkl
Status: SKIPPED (ALREADY EXISTS)
==================================================

=== SKIPPED (ALREADY EXISTS) - 2025-10-14 21:39:46 ===
File index: 008193
Input file: /data/retarget/locomotion/raw/AMASS_SMPLXG/EKUT/300/PushStandStraight_06_stageii.npz
Output file: ../robot/ik_based/pkl/008193.pkl
Status: SKIPPED (ALREADY EXISTS)
==================================================

=== SKIPPED (ALREADY EXISTS) - 2025-10-14 21:39:46 ===
File index: 008194
Input file: /data/retarget/locomotion/raw/AMASS_SMPLXG/EKUT/300/PushStandStraight_07_stageii.npz
Output file: ../robot/ik_based/pkl/008194.pkl
Status: SKIPPED (ALREADY EXISTS)
==================================================

=== SKIPPED (ALREADY EXISTS) - 2025-10-14 21:39:46 ===
File index: 008195
Input file: /data/retarget/locomotion/raw/AMASS_SMPLXG/EKUT/300/PushStandStraight_08_stageii.npz
Output file: ../robot/ik_based/pkl/008195.pkl
Status: SKIPPED (ALREADY EXISTS)
==================================================

=== SKIPPED (ALREADY EXISTS) - 2025-10-14 21:39:46 ===
File index: 008196
Input file: /data/retarget/locomotion/raw/AMASS_SMPLXG/EKUT/300/PushStandStraight_09_stageii.npz
Output file: ../robot/ik_based/pkl/008196.pkl
Status: SKIPPED (ALREADY EXISTS)
==================================================

=== SKIPPED (ALREADY EXISTS) - 2025-10-14 21:39:46 ===
File index: 008197
Input file: /data/retarget/locomotion/raw/AMASS_SMPLXG/EKUT/300/PushStandStraight_10_stageii.npz
Output file: ../robot/ik_based/pkl/008197.pkl
Status: SKIPPED (ALREADY EXISTS)
==================================================

=== SKIPPED (ALREADY EXISTS) - 2025-10-14 21:39:46 ===
File index: 008198
Input file: /data/retarget/locomotion/raw/AMASS_SMPLXG/EKUT/300/PushStandTransPedar_01_stageii.npz
Output file: ../robot/ik_based/pkl/008198.pkl
Status: SKIPPED (ALREADY EXISTS)
==================================================

=== SKIPPED (ALREADY EXISTS) - 2025-10-14 21:39:46 ===
File index: 008199
Input file: /data/retarget/locomotion/raw/AMASS_SMPLXG/EKUT/300/PushStandTransPedar_02_stageii.npz
Output file: ../robot/ik_based/pkl/008199.pkl
Status: SKIPPED (ALREADY EXISTS)
==================================================

=== SKIPPED (ALREADY EXISTS) - 2025-10-14 21:39:46 ===
File index: 008200
Input file: /data/retarget/locomotion/raw/AMASS_SMPLXG/EKUT/300/PushStandTransPedar_03_stageii.npz
Output file: ../robot/ik_based/pkl/008200.pkl
Status: SKIPPED (ALREADY EXISTS)
==================================================

=== SKIPPED (ALREADY EXISTS) - 2025-10-14 21:39:46 ===
File index: 008201
Input file: /data/retarget/locomotion/raw/AMASS_SMPLXG/EKUT/300/PushStandTransPedar_04_stageii.npz
Output file: ../robot/ik_based/pkl/008201.pkl
Status: SKIPPED (ALREADY EXISTS)
==================================================

=== SKIPPED (ALREADY EXISTS) - 2025-10-14 21:39:46 ===
File index: 008202
Input file: /data/retarget/locomotion/raw/AMASS_SMPLXG/EKUT/300/PushStandTransPedar_05_stageii.npz
Output file: ../robot/ik_based/pkl/008202.pkl
Status: SKIPPED (ALREADY EXISTS)
==================================================

=== SKIPPED (ALREADY EXISTS) - 2025-10-14 21:39:46 ===
File index: 008203
Input file: /data/retarget/locomotion/raw/AMASS_SMPLXG/EKUT/300/PushStandTransPedar_06_stageii.npz
Output file: ../robot/ik_based/pkl/008203.pkl
Status: SKIPPED (ALREADY EXISTS)
==================================================

=== SKIPPED (ALREADY EXISTS) - 2025-10-14 21:39:46 ===
File index: 008204
Input file: /data/retarget/locomotion/raw/AMASS_SMPLXG/EKUT/300/PushStandTransPedar_07_stageii.npz
Output file: ../robot/ik_based/pkl/008204.pkl
Status: SKIPPED (ALREADY EXISTS)
==================================================

=== SKIPPED (ALREADY EXISTS) - 2025-10-14 21:39:46 ===
File index: 008205
Input file: /data/retarget/locomotion/raw/AMASS_SMPLXG/EKUT/300/PushStandTransPedar_08_stageii.npz
Output file: ../robot/ik_based/pkl/008205.pkl
Status: SKIPPED (ALREADY EXISTS)
==================================================

=== SKIPPED (ALREADY EXISTS) - 2025-10-14 21:39:46 ===
File index: 008206
Input file: /data/retarget/locomotion/raw/AMASS_SMPLXG/EKUT/300/PushStandTransPedar_09_stageii.npz
Output file: ../robot/ik_based/pkl/008206.pkl
Status: SKIPPED (ALREADY EXISTS)
==================================================

=== SKIPPED (ALREADY EXISTS) - 2025-10-14 21:39:46 ===
File index: 008207
Input file: /data/retarget/locomotion/raw/AMASS_SMPLXG/EKUT/300/PushStandTransPedar_10_stageii.npz
Output file: ../robot/ik_based/pkl/008207.pkl
Status: SKIPPED (ALREADY EXISTS)
==================================================

=== SKIPPED (ALREADY EXISTS) - 2025-10-14 21:39:46 ===
File index: 008208
Input file: /data/retarget/locomotion/raw/AMASS_SMPLXG/EKUT/300/PushStandTrans_01_stageii.npz
Output file: ../robot/ik_based/pkl/008208.pkl
Status: SKIPPED (ALREADY EXISTS)
==================================================

=== SKIPPED (ALREADY EXISTS) - 2025-10-14 21:39:46 ===
File index: 008209
Input file: /data/retarget/locomotion/raw/AMASS_SMPLXG/EKUT/300/PushStandTrans_02_stageii.npz
Output file: ../robot/ik_based/pkl/008209.pkl
Status: SKIPPED (ALREADY EXISTS)
==================================================

=== SKIPPED (ALREADY EXISTS) - 2025-10-14 21:39:46 ===
File index: 008210
Input file: /data/retarget/locomotion/raw/AMASS_SMPLXG/EKUT/300/PushStandTrans_03_stageii.npz
Output file: ../robot/ik_based/pkl/008210.pkl
Status: SKIPPED (ALREADY EXISTS)
==================================================

=== SKIPPED (ALREADY EXISTS) - 2025-10-14 21:39:46 ===
File index: 008211
Input file: /data/retarget/locomotion/raw/AMASS_SMPLXG/EKUT/300/PushStandTrans_04_stageii.npz
Output file: ../robot/ik_based/pkl/008211.pkl
Status: SKIPPED (ALREADY EXISTS)
==================================================

=== SKIPPED (ALREADY EXISTS) - 2025-10-14 21:39:46 ===
File index: 008212
Input file: /data/retarget/locomotion/raw/AMASS_SMPLXG/EKUT/300/PushStandTrans_05_stageii.npz
Output file: ../robot/ik_based/pkl/008212.pkl
Status: SKIPPED (ALREADY EXISTS)
==================================================

=== SKIPPED (ALREADY EXISTS) - 2025-10-14 21:39:46 ===
File index: 008213
Input file: /data/retarget/locomotion/raw/AMASS_SMPLXG/EKUT/300/PushStandTrans_06_stageii.npz
Output file: ../robot/ik_based/pkl/008213.pkl
Status: SKIPPED (ALREADY EXISTS)
==================================================

=== SKIPPED (ALREADY EXISTS) - 2025-10-14 21:39:46 ===
File index: 008214
Input file: /data/retarget/locomotion/raw/AMASS_SMPLXG/EKUT/300/PushStandTrans_07_stageii.npz
Output file: ../robot/ik_based/pkl/008214.pkl
Status: SKIPPED (ALREADY EXISTS)
==================================================

=== SKIPPED (ALREADY EXISTS) - 2025-10-14 21:39:46 ===
File index: 008215
Input file: /data/retarget/locomotion/raw/AMASS_SMPLXG/EKUT/300/PushStandTrans_08_stageii.npz
Output file: ../robot/ik_based/pkl/008215.pkl
Status: SKIPPED (ALREADY EXISTS)
==================================================

=== SKIPPED (ALREADY EXISTS) - 2025-10-14 21:39:46 ===
File index: 008216
Input file: /data/retarget/locomotion/raw/AMASS_SMPLXG/EKUT/300/PushStandTrans_09_stageii.npz
Output file: ../robot/ik_based/pkl/008216.pkl
Status: SKIPPED (ALREADY EXISTS)
==================================================

=== SKIPPED (ALREADY EXISTS) - 2025-10-14 21:39:46 ===
File index: 008217
Input file: /data/retarget/locomotion/raw/AMASS_SMPLXG/EKUT/300/PushStandTrans_10_stageii.npz
Output file: ../robot/ik_based/pkl/008217.pkl
Status: SKIPPED (ALREADY EXISTS)
==================================================

=== SKIPPED (ALREADY EXISTS) - 2025-10-14 21:39:46 ===
File index: 008218
Input file: /data/retarget/locomotion/raw/AMASS_SMPLXG/EKUT/300/Tpose_stageii.npz
Output file: ../robot/ik_based/pkl/008218.pkl
Status: SKIPPED (ALREADY EXISTS)
==================================================

=== ERROR LOG - 2025-10-14 21:39:47 ===
Input file: /data/retarget/locomotion/raw/AMASS_SMPLXG/EKUT/300/male_stagei.npz
Output file: ../robot/ik_based/pkl/008219.pkl
Robot type: unitree_g1
Processing time: 0.72 seconds
Error message: 'pose_body is not a file in the archive'
Error type: KeyError
==================================================

=== FILE FAILURE - 2025-10-14 21:39:47 ===
File index: 008219
File number: 190/9727
Input file: /data/retarget/locomotion/raw/AMASS_SMPLXG/EKUT/300/male_stagei.npz
Output file: ../robot/ik_based/pkl/008219.pkl
Processing time: 0.72 seconds
Total file time: 0.81 seconds
Status: FAILED
==================================================

=== SKIPPED (ALREADY EXISTS) - 2025-10-14 21:39:47 ===
File index: 008220
Input file: /data/retarget/locomotion/raw/AMASS_SMPLXG/Eyes_Japan_Dataset/aita/accident-02-dodge_fast-aita_stageii.npz
Output file: ../robot/ik_based/pkl/008220.pkl
Status: SKIPPED (ALREADY EXISTS)
==================================================

=== SKIPPED (ALREADY EXISTS) - 2025-10-14 21:39:47 ===
File index: 008221
Input file: /data/retarget/locomotion/raw/AMASS_SMPLXG/Eyes_Japan_Dataset/aita/accident-03-damage_head-aita_stageii.npz
Output file: ../robot/ik_based/pkl/008221.pkl
Status: SKIPPED (ALREADY EXISTS)
==================================================

=== SKIPPED (ALREADY EXISTS) - 2025-10-14 21:39:47 ===
File index: 008222
Input file: /data/retarget/locomotion/raw/AMASS_SMPLXG/Eyes_Japan_Dataset/aita/accident-04-damage_right_leg-aita_stageii.npz
Output file: ../robot/ik_based/pkl/008222.pkl
Status: SKIPPED (ALREADY EXISTS)
==================================================

=== SKIPPED (ALREADY EXISTS) - 2025-10-14 21:39:47 ===
File index: 008223
Input file: /data/retarget/locomotion/raw/AMASS_SMPLXG/Eyes_Japan_Dataset/aita/accident-06-damage_left_leg-aita_stageii.npz
Output file: ../robot/ik_based/pkl/008223.pkl
Status: SKIPPED (ALREADY EXISTS)
==================================================

=== SKIPPED (ALREADY EXISTS) - 2025-10-14 21:39:47 ===
File index: 008224
Input file: /data/retarget/locomotion/raw/AMASS_SMPLXG/Eyes_Japan_Dataset/aita/accident-08-damage_rightfoot-aita_stageii.npz
Output file: ../robot/ik_based/pkl/008224.pkl
Status: SKIPPED (ALREADY EXISTS)
==================================================

=== SKIPPED (ALREADY EXISTS) - 2025-10-14 21:39:47 ===
File index: 008225
Input file: /data/retarget/locomotion/raw/AMASS_SMPLXG/Eyes_Japan_Dataset/aita/accident-09-damage_leftfoot-aita_stageii.npz
Output file: ../robot/ik_based/pkl/008225.pkl
Status: SKIPPED (ALREADY EXISTS)
==================================================

=== SKIPPED (ALREADY EXISTS) - 2025-10-14 21:39:47 ===
File index: 008226
Input file: /data/retarget/locomotion/raw/AMASS_SMPLXG/Eyes_Japan_Dataset/aita/accident-10-spasm-aita_stageii.npz
Output file: ../robot/ik_based/pkl/008226.pkl
Status: SKIPPED (ALREADY EXISTS)
==================================================

=== SKIPPED (ALREADY EXISTS) - 2025-10-14 21:39:47 ===
File index: 008227
Input file: /data/retarget/locomotion/raw/AMASS_SMPLXG/Eyes_Japan_Dataset/aita/accident-12-twist_foot-aita_stageii.npz
Output file: ../robot/ik_based/pkl/008227.pkl
Status: SKIPPED (ALREADY EXISTS)
==================================================

=== SKIPPED (ALREADY EXISTS) - 2025-10-14 21:39:47 ===
File index: 008228
Input file: /data/retarget/locomotion/raw/AMASS_SMPLXG/Eyes_Japan_Dataset/aita/accident-13-damage_back-aita_stageii.npz
Output file: ../robot/ik_based/pkl/008228.pkl
Status: SKIPPED (ALREADY EXISTS)
==================================================

=== SKIPPED (ALREADY EXISTS) - 2025-10-14 21:39:47 ===
File index: 008229
Input file: /data/retarget/locomotion/raw/AMASS_SMPLXG/Eyes_Japan_Dataset/aita/accident-14-dodge_turn_down-aita_stageii.npz
Output file: ../robot/ik_based/pkl/008229.pkl
Status: SKIPPED (ALREADY EXISTS)
==================================================

=== SKIPPED (ALREADY EXISTS) - 2025-10-14 21:39:47 ===
File index: 008230
Input file: /data/retarget/locomotion/raw/AMASS_SMPLXG/Eyes_Japan_Dataset/aita/accident-15-knock_head_2-aita_stageii.npz
Output file: ../robot/ik_based/pkl/008230.pkl
Status: SKIPPED (ALREADY EXISTS)
==================================================

=== SKIPPED (ALREADY EXISTS) - 2025-10-14 21:39:47 ===
File index: 008231
Input file: /data/retarget/locomotion/raw/AMASS_SMPLXG/Eyes_Japan_Dataset/aita/gesture_etc-03-set_3-aita_stageii.npz
Output file: ../robot/ik_based/pkl/008231.pkl
Status: SKIPPED (ALREADY EXISTS)
==================================================

=== SKIPPED (ALREADY EXISTS) - 2025-10-14 21:39:47 ===
File index: 008232
Input file: /data/retarget/locomotion/raw/AMASS_SMPLXG/Eyes_Japan_Dataset/aita/gesture_etc-04-set_4-aita_stageii.npz
Output file: ../robot/ik_based/pkl/008232.pkl
Status: SKIPPED (ALREADY EXISTS)
==================================================

=== SKIPPED (ALREADY EXISTS) - 2025-10-14 21:39:47 ===
File index: 008233
Input file: /data/retarget/locomotion/raw/AMASS_SMPLXG/Eyes_Japan_Dataset/aita/gesture_etc-05-touch_nose-aita_stageii.npz
Output file: ../robot/ik_based/pkl/008233.pkl
Status: SKIPPED (ALREADY EXISTS)
==================================================

=== SKIPPED (ALREADY EXISTS) - 2025-10-14 21:39:47 ===
File index: 008234
Input file: /data/retarget/locomotion/raw/AMASS_SMPLXG/Eyes_Japan_Dataset/aita/gesture_etc-06-jiggle_knee-aita_stageii.npz
Output file: ../robot/ik_based/pkl/008234.pkl
Status: SKIPPED (ALREADY EXISTS)
==================================================

=== SKIPPED (ALREADY EXISTS) - 2025-10-14 21:39:47 ===
File index: 008235
Input file: /data/retarget/locomotion/raw/AMASS_SMPLXG/Eyes_Japan_Dataset/aita/gesture_etc-07-over_stretch-aita_stageii.npz
Output file: ../robot/ik_based/pkl/008235.pkl
Status: SKIPPED (ALREADY EXISTS)
==================================================

=== SKIPPED (ALREADY EXISTS) - 2025-10-14 21:39:47 ===
File index: 008236
Input file: /data/retarget/locomotion/raw/AMASS_SMPLXG/Eyes_Japan_Dataset/aita/gesture_etc-08-stretch-aita_stageii.npz
Output file: ../robot/ik_based/pkl/008236.pkl
Status: SKIPPED (ALREADY EXISTS)
==================================================

=== SKIPPED (ALREADY EXISTS) - 2025-10-14 21:39:47 ===
File index: 008237
Input file: /data/retarget/locomotion/raw/AMASS_SMPLXG/Eyes_Japan_Dataset/aita/gesture_etc-09-scratch-aita_stageii.npz
Output file: ../robot/ik_based/pkl/008237.pkl
Status: SKIPPED (ALREADY EXISTS)
==================================================

=== SKIPPED (ALREADY EXISTS) - 2025-10-14 21:39:47 ===
File index: 008238
Input file: /data/retarget/locomotion/raw/AMASS_SMPLXG/Eyes_Japan_Dataset/aita/gesture_etc-10-snip_nail-aita_stageii.npz
Output file: ../robot/ik_based/pkl/008238.pkl
Status: SKIPPED (ALREADY EXISTS)
==================================================

=== SKIPPED (ALREADY EXISTS) - 2025-10-14 21:39:47 ===
File index: 008239
Input file: /data/retarget/locomotion/raw/AMASS_SMPLXG/Eyes_Japan_Dataset/aita/gesture_etc-11-hold_arms-aita_stageii.npz
Output file: ../robot/ik_based/pkl/008239.pkl
Status: SKIPPED (ALREADY EXISTS)
==================================================

=== SKIPPED (ALREADY EXISTS) - 2025-10-14 21:39:47 ===
File index: 008240
Input file: /data/retarget/locomotion/raw/AMASS_SMPLXG/Eyes_Japan_Dataset/aita/gesture_etc-14-apologize-aita_stageii.npz
Output file: ../robot/ik_based/pkl/008240.pkl
Status: SKIPPED (ALREADY EXISTS)
==================================================

=== SKIPPED (ALREADY EXISTS) - 2025-10-14 21:39:47 ===
File index: 008241
Input file: /data/retarget/locomotion/raw/AMASS_SMPLXG/Eyes_Japan_Dataset/aita/gesture_etc-16-dryer-aita_stageii.npz
Output file: ../robot/ik_based/pkl/008241.pkl
Status: SKIPPED (ALREADY EXISTS)
==================================================

=== SKIPPED (ALREADY EXISTS) - 2025-10-14 21:39:47 ===
File index: 008242
Input file: /data/retarget/locomotion/raw/AMASS_SMPLXG/Eyes_Japan_Dataset/aita/gesture_etc-17-drink-aita_stageii.npz
Output file: ../robot/ik_based/pkl/008242.pkl
Status: SKIPPED (ALREADY EXISTS)
==================================================

=== SKIPPED (ALREADY EXISTS) - 2025-10-14 21:39:47 ===
File index: 008243
Input file: /data/retarget/locomotion/raw/AMASS_SMPLXG/Eyes_Japan_Dataset/aita/gesture_etc-18-eat-aita_stageii.npz
Output file: ../robot/ik_based/pkl/008243.pkl
Status: SKIPPED (ALREADY EXISTS)
==================================================

=== SKIPPED (ALREADY EXISTS) - 2025-10-14 21:39:47 ===
File index: 008244
Input file: /data/retarget/locomotion/raw/AMASS_SMPLXG/Eyes_Japan_Dataset/aita/gesture_etc-19-fold_legs-aita_stageii.npz
Output file: ../robot/ik_based/pkl/008244.pkl
Status: SKIPPED (ALREADY EXISTS)
==================================================

=== SKIPPED (ALREADY EXISTS) - 2025-10-14 21:39:47 ===
File index: 008245
Input file: /data/retarget/locomotion/raw/AMASS_SMPLXG/Eyes_Japan_Dataset/aita/gesture_etc-20-swing_chair-aita_stageii.npz
Output file: ../robot/ik_based/pkl/008245.pkl
Status: SKIPPED (ALREADY EXISTS)
==================================================

=== SKIPPED (ALREADY EXISTS) - 2025-10-14 21:39:47 ===
File index: 008246
Input file: /data/retarget/locomotion/raw/AMASS_SMPLXG/Eyes_Japan_Dataset/aita/gesture_etc-21-clapping-aita_stageii.npz
Output file: ../robot/ik_based/pkl/008246.pkl
Status: SKIPPED (ALREADY EXISTS)
==================================================

=== SKIPPED (ALREADY EXISTS) - 2025-10-14 21:39:47 ===
File index: 008247
Input file: /data/retarget/locomotion/raw/AMASS_SMPLXG/Eyes_Japan_Dataset/aita/gesture_etc-22-mobile_receive-aita_stageii.npz
Output file: ../robot/ik_based/pkl/008247.pkl
Status: SKIPPED (ALREADY EXISTS)
==================================================

=== SKIPPED (ALREADY EXISTS) - 2025-10-14 21:39:47 ===
File index: 008248
Input file: /data/retarget/locomotion/raw/AMASS_SMPLXG/Eyes_Japan_Dataset/aita/gesture_etc-23-mobile_call-aita_stageii.npz
Output file: ../robot/ik_based/pkl/008248.pkl
Status: SKIPPED (ALREADY EXISTS)
==================================================

=== SKIPPED (ALREADY EXISTS) - 2025-10-14 21:39:47 ===
File index: 008249
Input file: /data/retarget/locomotion/raw/AMASS_SMPLXG/Eyes_Japan_Dataset/aita/gesture_etc-26-hit_mosquito-aita_stageii.npz
Output file: ../robot/ik_based/pkl/008249.pkl
Status: SKIPPED (ALREADY EXISTS)
==================================================

=== SKIPPED (ALREADY EXISTS) - 2025-10-14 21:39:47 ===
File index: 008250
Input file: /data/retarget/locomotion/raw/AMASS_SMPLXG/Eyes_Japan_Dataset/aita/gesture_etc-29-pantomime-aita_stageii.npz
Output file: ../robot/ik_based/pkl/008250.pkl
Status: SKIPPED (ALREADY EXISTS)
==================================================

=== SKIPPED (ALREADY EXISTS) - 2025-10-14 21:39:47 ===
File index: 008251
Input file: /data/retarget/locomotion/raw/AMASS_SMPLXG/Eyes_Japan_Dataset/aita/gesture_etc-30-fxxk-aita_stageii.npz
Output file: ../robot/ik_based/pkl/008251.pkl
Status: SKIPPED (ALREADY EXISTS)
==================================================

=== SKIPPED (ALREADY EXISTS) - 2025-10-14 21:39:47 ===
File index: 008252
Input file: /data/retarget/locomotion/raw/AMASS_SMPLXG/Eyes_Japan_Dataset/aita/gesture_etc-31-ok-aita_stageii.npz
Output file: ../robot/ik_based/pkl/008252.pkl
Status: SKIPPED (ALREADY EXISTS)
==================================================

=== SKIPPED (ALREADY EXISTS) - 2025-10-14 21:39:47 ===
File index: 008253
Input file: /data/retarget/locomotion/raw/AMASS_SMPLXG/Eyes_Japan_Dataset/aita/gesture_etc-32-no-aita_stageii.npz
Output file: ../robot/ik_based/pkl/008253.pkl
Status: SKIPPED (ALREADY EXISTS)
==================================================

=== SKIPPED (ALREADY EXISTS) - 2025-10-14 21:39:47 ===
File index: 008254
Input file: /data/retarget/locomotion/raw/AMASS_SMPLXG/Eyes_Japan_Dataset/aita/gesture_etc-33-watch_here-aita_stageii.npz
Output file: ../robot/ik_based/pkl/008254.pkl
Status: SKIPPED (ALREADY EXISTS)
==================================================

=== SKIPPED (ALREADY EXISTS) - 2025-10-14 21:39:47 ===
File index: 008255
Input file: /data/retarget/locomotion/raw/AMASS_SMPLXG/Eyes_Japan_Dataset/aita/gesture_etc-34-peace-aita_stageii.npz
Output file: ../robot/ik_based/pkl/008255.pkl
Status: SKIPPED (ALREADY EXISTS)
==================================================

=== SKIPPED (ALREADY EXISTS) - 2025-10-14 21:39:47 ===
File index: 008256
Input file: /data/retarget/locomotion/raw/AMASS_SMPLXG/Eyes_Japan_Dataset/aita/gesture_etc-35-west_side-aita_stageii.npz
Output file: ../robot/ik_based/pkl/008256.pkl
Status: SKIPPED (ALREADY EXISTS)
==================================================

=== SKIPPED (ALREADY EXISTS) - 2025-10-14 21:39:47 ===
File index: 008257
Input file: /data/retarget/locomotion/raw/AMASS_SMPLXG/Eyes_Japan_Dataset/aita/gesture_etc-37-gay-aita_stageii.npz
Output file: ../robot/ik_based/pkl/008257.pkl
Status: SKIPPED (ALREADY EXISTS)
==================================================

=== SKIPPED (ALREADY EXISTS) - 2025-10-14 21:39:47 ===
File index: 008258
Input file: /data/retarget/locomotion/raw/AMASS_SMPLXG/Eyes_Japan_Dataset/aita/gesture_etc-38-hand_language-aita_stageii.npz
Output file: ../robot/ik_based/pkl/008258.pkl
Status: SKIPPED (ALREADY EXISTS)
==================================================

=== SKIPPED (ALREADY EXISTS) - 2025-10-14 21:39:47 ===
File index: 008259
Input file: /data/retarget/locomotion/raw/AMASS_SMPLXG/Eyes_Japan_Dataset/aita/gesture_etc-39-giant_baba-aita_stageii.npz
Output file: ../robot/ik_based/pkl/008259.pkl
Status: SKIPPED (ALREADY EXISTS)
==================================================

=== SKIPPED (ALREADY EXISTS) - 2025-10-14 21:39:47 ===
File index: 008260
Input file: /data/retarget/locomotion/raw/AMASS_SMPLXG/Eyes_Japan_Dataset/aita/gesture_etc-40-head_banging-aita_stageii.npz
Output file: ../robot/ik_based/pkl/008260.pkl
Status: SKIPPED (ALREADY EXISTS)
==================================================

=== SKIPPED (ALREADY EXISTS) - 2025-10-14 21:39:47 ===
File index: 008261
Input file: /data/retarget/locomotion/raw/AMASS_SMPLXG/Eyes_Japan_Dataset/aita/gesture_etc-41-mosh-aita_stageii.npz
Output file: ../robot/ik_based/pkl/008261.pkl
Status: SKIPPED (ALREADY EXISTS)
==================================================

=== SKIPPED (ALREADY EXISTS) - 2025-10-14 21:39:47 ===
File index: 008262
Input file: /data/retarget/locomotion/raw/AMASS_SMPLXG/Eyes_Japan_Dataset/aita/gesture_etc-42-hung_over-aita_stageii.npz
Output file: ../robot/ik_based/pkl/008262.pkl
Status: SKIPPED (ALREADY EXISTS)
==================================================

=== SKIPPED (ALREADY EXISTS) - 2025-10-14 21:39:47 ===
File index: 008263
Input file: /data/retarget/locomotion/raw/AMASS_SMPLXG/Eyes_Japan_Dataset/aita/gesture_etc-43-brush_teeth-aita_stageii.npz
Output file: ../robot/ik_based/pkl/008263.pkl
Status: SKIPPED (ALREADY EXISTS)
==================================================

=== SKIPPED (ALREADY EXISTS) - 2025-10-14 21:39:47 ===
File index: 008264
Input file: /data/retarget/locomotion/raw/AMASS_SMPLXG/Eyes_Japan_Dataset/aita/gesture_etc-45-feel_dizzy_-aita_stageii.npz
Output file: ../robot/ik_based/pkl/008264.pkl
Status: SKIPPED (ALREADY EXISTS)
==================================================

=== SKIPPED (ALREADY EXISTS) - 2025-10-14 21:39:47 ===
File index: 008265
Input file: /data/retarget/locomotion/raw/AMASS_SMPLXG/Eyes_Japan_Dataset/aita/gesture_etc-47-big_drum-aita_stageii.npz
Output file: ../robot/ik_based/pkl/008265.pkl
Status: SKIPPED (ALREADY EXISTS)
==================================================

=== SKIPPED (ALREADY EXISTS) - 2025-10-14 21:39:47 ===
File index: 008266
Input file: /data/retarget/locomotion/raw/AMASS_SMPLXG/Eyes_Japan_Dataset/aita/gesture_etc-48-medium_drum-aita_stageii.npz
Output file: ../robot/ik_based/pkl/008266.pkl
Status: SKIPPED (ALREADY EXISTS)
==================================================

=== SKIPPED (ALREADY EXISTS) - 2025-10-14 21:39:47 ===
File index: 008267
Input file: /data/retarget/locomotion/raw/AMASS_SMPLXG/Eyes_Japan_Dataset/aita/gesture_etc-49-taiko_under-aita_stageii.npz
Output file: ../robot/ik_based/pkl/008267.pkl
Status: SKIPPED (ALREADY EXISTS)
==================================================

=== SKIPPED (ALREADY EXISTS) - 2025-10-14 21:39:47 ===
File index: 008268
Input file: /data/retarget/locomotion/raw/AMASS_SMPLXG/Eyes_Japan_Dataset/aita/gesture_etc-50-syuriken-aita_stageii.npz
Output file: ../robot/ik_based/pkl/008268.pkl
Status: SKIPPED (ALREADY EXISTS)
==================================================

=== SKIPPED (ALREADY EXISTS) - 2025-10-14 21:39:47 ===
File index: 008269
Input file: /data/retarget/locomotion/raw/AMASS_SMPLXG/Eyes_Japan_Dataset/aita/greeting-01-hello-aita_stageii.npz
Output file: ../robot/ik_based/pkl/008269.pkl
Status: SKIPPED (ALREADY EXISTS)
==================================================

=== SKIPPED (ALREADY EXISTS) - 2025-10-14 21:39:47 ===
File index: 008270
Input file: /data/retarget/locomotion/raw/AMASS_SMPLXG/Eyes_Japan_Dataset/aita/greeting-02-bye-aita_stageii.npz
Output file: ../robot/ik_based/pkl/008270.pkl
Status: SKIPPED (ALREADY EXISTS)
==================================================

=== SKIPPED (ALREADY EXISTS) - 2025-10-14 21:39:47 ===
File index: 008271
Input file: /data/retarget/locomotion/raw/AMASS_SMPLXG/Eyes_Japan_Dataset/aita/greeting-03-election-aita_stageii.npz
Output file: ../robot/ik_based/pkl/008271.pkl
Status: SKIPPED (ALREADY EXISTS)
==================================================

=== SKIPPED (ALREADY EXISTS) - 2025-10-14 21:39:47 ===
File index: 008272
Input file: /data/retarget/locomotion/raw/AMASS_SMPLXG/Eyes_Japan_Dataset/aita/greeting-04-salute_(head)-aita_stageii.npz
Output file: ../robot/ik_based/pkl/008272.pkl
Status: SKIPPED (ALREADY EXISTS)
==================================================

=== SKIPPED (ALREADY EXISTS) - 2025-10-14 21:39:47 ===
File index: 008273
Input file: /data/retarget/locomotion/raw/AMASS_SMPLXG/Eyes_Japan_Dataset/aita/greeting-05-salute_(chest)-aita_stageii.npz
Output file: ../robot/ik_based/pkl/008273.pkl
Status: SKIPPED (ALREADY EXISTS)
==================================================

=== SKIPPED (ALREADY EXISTS) - 2025-10-14 21:39:47 ===
File index: 008274
Input file: /data/retarget/locomotion/raw/AMASS_SMPLXG/Eyes_Japan_Dataset/aita/greeting-07-bow-aita_stageii.npz
Output file: ../robot/ik_based/pkl/008274.pkl
Status: SKIPPED (ALREADY EXISTS)
==================================================

=== SKIPPED (ALREADY EXISTS) - 2025-10-14 21:39:47 ===
File index: 008275
Input file: /data/retarget/locomotion/raw/AMASS_SMPLXG/Eyes_Japan_Dataset/aita/greeting-08-shakehands-aita_stageii.npz
Output file: ../robot/ik_based/pkl/008275.pkl
Status: SKIPPED (ALREADY EXISTS)
==================================================

=== SKIPPED (ALREADY EXISTS) - 2025-10-14 21:39:47 ===
File index: 008276
Input file: /data/retarget/locomotion/raw/AMASS_SMPLXG/Eyes_Japan_Dataset/aita/greeting-09-certificate-aita_stageii.npz
Output file: ../robot/ik_based/pkl/008276.pkl
Status: SKIPPED (ALREADY EXISTS)
==================================================

=== SKIPPED (ALREADY EXISTS) - 2025-10-14 21:39:47 ===
File index: 008277
Input file: /data/retarget/locomotion/raw/AMASS_SMPLXG/Eyes_Japan_Dataset/aita/greeting-10-card_exchange-aita_stageii.npz
Output file: ../robot/ik_based/pkl/008277.pkl
Status: SKIPPED (ALREADY EXISTS)
==================================================

=== SKIPPED (ALREADY EXISTS) - 2025-10-14 21:39:47 ===
File index: 008278
Input file: /data/retarget/locomotion/raw/AMASS_SMPLXG/Eyes_Japan_Dataset/aita/jump-11-warmup-aita_stageii.npz
Output file: ../robot/ik_based/pkl/008278.pkl
Status: SKIPPED (ALREADY EXISTS)
==================================================

=== SKIPPED (ALREADY EXISTS) - 2025-10-14 21:39:47 ===
File index: 008279
Input file: /data/retarget/locomotion/raw/AMASS_SMPLXG/Eyes_Japan_Dataset/aita/jump-13-matrix-aita_stageii.npz
Output file: ../robot/ik_based/pkl/008279.pkl
Status: SKIPPED (ALREADY EXISTS)
==================================================

=== ERROR LOG - 2025-10-14 21:39:48 ===
Input file: /data/retarget/locomotion/raw/AMASS_SMPLXG/Eyes_Japan_Dataset/aita/male_stagei.npz
Output file: ../robot/ik_based/pkl/008280.pkl
Robot type: unitree_g1
Processing time: 0.72 seconds
Error message: 'pose_body is not a file in the archive'
Error type: KeyError
==================================================

=== FILE FAILURE - 2025-10-14 21:39:48 ===
File index: 008280
File number: 251/9727
Input file: /data/retarget/locomotion/raw/AMASS_SMPLXG/Eyes_Japan_Dataset/aita/male_stagei.npz
Output file: ../robot/ik_based/pkl/008280.pkl
Processing time: 0.72 seconds
Total file time: 0.79 seconds
Status: FAILED
==================================================

=== SKIPPED (ALREADY EXISTS) - 2025-10-14 21:39:48 ===
File index: 008281
Input file: /data/retarget/locomotion/raw/AMASS_SMPLXG/Eyes_Japan_Dataset/aita/pain-01-headache-aita_stageii.npz
Output file: ../robot/ik_based/pkl/008281.pkl
Status: SKIPPED (ALREADY EXISTS)
==================================================

=== SKIPPED (ALREADY EXISTS) - 2025-10-14 21:39:48 ===
File index: 008282
Input file: /data/retarget/locomotion/raw/AMASS_SMPLXG/Eyes_Japan_Dataset/aita/pain-03-toothache-aita_stageii.npz
Output file: ../robot/ik_based/pkl/008282.pkl
Status: SKIPPED (ALREADY EXISTS)
==================================================

=== SKIPPED (ALREADY EXISTS) - 2025-10-14 21:39:48 ===
File index: 008283
Input file: /data/retarget/locomotion/raw/AMASS_SMPLXG/Eyes_Japan_Dataset/aita/pain-05-backache-aita_stageii.npz
Output file: ../robot/ik_based/pkl/008283.pkl
Status: SKIPPED (ALREADY EXISTS)
==================================================

=== SKIPPED (ALREADY EXISTS) - 2025-10-14 21:39:48 ===
File index: 008284
Input file: /data/retarget/locomotion/raw/AMASS_SMPLXG/Eyes_Japan_Dataset/aita/pose-01-normal-aita_stageii.npz
Output file: ../robot/ik_based/pkl/008284.pkl
Status: SKIPPED (ALREADY EXISTS)
==================================================

=== SKIPPED (ALREADY EXISTS) - 2025-10-14 21:39:48 ===
File index: 008285
Input file: /data/retarget/locomotion/raw/AMASS_SMPLXG/Eyes_Japan_Dataset/aita/pose-03-open_leg-aita_stageii.npz
Output file: ../robot/ik_based/pkl/008285.pkl
Status: SKIPPED (ALREADY EXISTS)
==================================================

=== SKIPPED (ALREADY EXISTS) - 2025-10-14 21:39:48 ===
File index: 008286
Input file: /data/retarget/locomotion/raw/AMASS_SMPLXG/Eyes_Japan_Dataset/aita/pose-04-drank-aita_stageii.npz
Output file: ../robot/ik_based/pkl/008286.pkl
Status: SKIPPED (ALREADY EXISTS)
==================================================

=== SKIPPED (ALREADY EXISTS) - 2025-10-14 21:39:48 ===
File index: 008287
Input file: /data/retarget/locomotion/raw/AMASS_SMPLXG/Eyes_Japan_Dataset/aita/pose-06-hangon-aita_stageii.npz
Output file: ../robot/ik_based/pkl/008287.pkl
Status: SKIPPED (ALREADY EXISTS)
==================================================

=== SKIPPED (ALREADY EXISTS) - 2025-10-14 21:39:48 ===
File index: 008288
Input file: /data/retarget/locomotion/raw/AMASS_SMPLXG/Eyes_Japan_Dataset/aita/pose-07-pray_cross-aita_stageii.npz
Output file: ../robot/ik_based/pkl/008288.pkl
Status: SKIPPED (ALREADY EXISTS)
==================================================

=== SKIPPED (ALREADY EXISTS) - 2025-10-14 21:39:48 ===
File index: 008289
Input file: /data/retarget/locomotion/raw/AMASS_SMPLXG/Eyes_Japan_Dataset/aita/pose-08-pray_buddhismintone-aita_stageii.npz
Output file: ../robot/ik_based/pkl/008289.pkl
Status: SKIPPED (ALREADY EXISTS)
==================================================

[...]
  Step 2 - Align FPS:         36.25s
  Step 3 - Init Retarget:     0.69s
  Step 4 - Init Visualization: 0.00s
  Step 5 - Process Frames:    77.88s (avg: 0.048s/frame)
  Step 6 - Convert Arrays:    0.00s
  Step 7 - Forward Kinematics: 0.05s
  Step 8 - Save Data:         0.00s
Status: SUCCESS
==================================================

=== FILE SUCCESS - 2025-10-15 06:11:33 ===
File index: 010351
File number: 2322/9727
Input file: /data/retarget/locomotion/raw/AMASS_SMPLXG/HDM05/bk/HDM_bk_02-02_03_120_stageii.npz
Output file: ../robot/ik_based/pkl/010351.pkl
Processing time: 146.87 seconds
Total file time: 148.02 seconds
Status: SUCCESS
==================================================

=== SUCCESS LOG - 2025-10-15 06:12:47 ===
Input file: /data/retarget/locomotion/raw/AMASS_SMPLXG/HDM05/bk/HDM_bk_02-03_01_120_stageii.npz
Output file: ../robot/ik_based/pkl/010352.pkl
Robot type: unitree_g1
Processing time: 73.89 seconds

STEP-BY-STEP TIMING:
  Step 1 - Load SMPLX:        5.93s
  Step 2 - Align FPS:         12.06s
  Step 3 - Init Retarget:     0.84s
  Step 4 - Init Visualization: 0.00s
  Step 5 - Process Frames:    54.99s (avg: 0.087s/frame)
  Step 6 - Convert Arrays:    0.00s
  Step 7 - Forward Kinematics: 0.04s
  Step 8 - Save Data:         0.00s
Status: SUCCESS
==================================================

=== FILE SUCCESS - 2025-10-15 06:12:48 ===
File index: 010352
File number: 2323/9727
Input file: /data/retarget/locomotion/raw/AMASS_SMPLXG/HDM05/bk/HDM_bk_02-03_01_120_stageii.npz
Output file: ../robot/ik_based/pkl/010352.pkl
Processing time: 73.89 seconds
Total file time: 74.57 seconds
Status: SUCCESS
==================================================

=== SUCCESS LOG - 2025-10-15 06:14:08 ===
Input file: /data/retarget/locomotion/raw/AMASS_SMPLXG/HDM05/bk/HDM_bk_02-03_02_120_stageii.npz
Output file: ../robot/ik_based/pkl/010353.pkl
Robot type: unitree_g1
Processing time: 80.02 seconds

STEP-BY-STEP TIMING:
  Step 1 - Load SMPLX:        8.07s
  Step 2 - Align FPS:         6.44s
  Step 3 - Init Retarget:     1.43s
  Step 4 - Init Visualization: 0.00s
  Step 5 - Process Frames:    63.87s (avg: 0.137s/frame)
  Step 6 - Convert Arrays:    0.00s
  Step 7 - Forward Kinematics: 0.08s
  Step 8 - Save Data:         0.00s
Status: SUCCESS
==================================================

=== FILE SUCCESS - 2025-10-15 06:14:08 ===
File index: 010353
File number: 2324/9727
Input file: /data/retarget/locomotion/raw/AMASS_SMPLXG/HDM05/bk/HDM_bk_02-03_02_120_stageii.npz
Output file: ../robot/ik_based/pkl/010353.pkl
Processing time: 80.02 seconds
Total file time: 80.55 seconds
Status: SUCCESS
==================================================

=== SUCCESS LOG - 2025-10-15 06:15:13 ===
Input file: /data/retarget/locomotion/raw/AMASS_SMPLXG/HDM05/bk/HDM_bk_02-03_03_120_stageii.npz
Output file: ../robot/ik_based/pkl/010354.pkl
Robot type: unitree_g1
Processing time: 65.02 seconds

STEP-BY-STEP TIMING:
  Step 1 - Load SMPLX:        17.52s
  Step 2 - Align FPS:         5.12s
  Step 3 - Init Retarget:     0.42s
  Step 4 - Init Visualization: 0.00s
  Step 5 - Process Frames:    41.78s (avg: 0.078s/frame)
  Step 6 - Convert Arrays:    0.00s
  Step 7 - Forward Kinematics: 0.10s
  Step 8 - Save Data:         0.01s
Status: SUCCESS
==================================================

=== FILE SUCCESS - 2025-10-15 06:15:14 ===
File index: 010354
File number: 2325/9727
Input file: /data/retarget/locomotion/raw/AMASS_SMPLXG/HDM05/bk/HDM_bk_02-03_03_120_stageii.npz
Output file: ../robot/ik_based/pkl/010354.pkl
Processing time: 65.02 seconds
Total file time: 65.52 seconds
Status: SUCCESS
==================================================

=== SUCCESS LOG - 2025-10-15 06:16:39 ===
Input file: /data/retarget/locomotion/raw/AMASS_SMPLXG/HDM05/bk/HDM_bk_02-03_04_120_stageii.npz
Output file: ../robot/ik_based/pkl/010355.pkl
Robot type: unitree_g1
Processing time: 84.85 seconds

STEP-BY-STEP TIMING:
  Step 1 - Load SMPLX:        21.49s
  Step 2 - Align FPS:         6.02s
  Step 3 - Init Retarget:     0.48s
  Step 4 - Init Visualization: 0.00s
  Step 5 - Process Frames:    56.76s (avg: 0.119s/frame)
  Step 6 - Convert Arrays:    0.00s
  Step 7 - Forward Kinematics: 0.06s
  Step 8 - Save Data:         0.00s
Status: SUCCESS
==================================================

=== FILE SUCCESS - 2025-10-15 06:16:39 ===
File index: 010355
File number: 2326/9727
Input file: /data/retarget/locomotion/raw/AMASS_SMPLXG/HDM05/bk/HDM_bk_02-03_04_120_stageii.npz
Output file: ../robot/ik_based/pkl/010355.pkl
Processing time: 84.85 seconds
Total file time: 85.38 seconds
Status: SUCCESS
==================================================

=== SUCCESS LOG - 2025-10-15 06:19:14 ===
Input file: /data/retarget/locomotion/raw/AMASS_SMPLXG/HDM05/bk/HDM_bk_03-02_01_120_stageii.npz
Output file: ../robot/ik_based/pkl/010356.pkl
Robot type: unitree_g1
Processing time: 154.88 seconds

STEP-BY-STEP TIMING:
  Step 1 - Load SMPLX:        44.00s
  Step 2 - Align FPS:         13.26s
  Step 3 - Init Retarget:     0.30s
  Step 4 - Init Visualization: 0.00s
  Step 5 - Process Frames:    96.93s (avg: 0.078s/frame)
  Step 6 - Convert Arrays:    0.00s
  Step 7 - Forward Kinematics: 0.27s
  Step 8 - Save Data:         0.01s
Status: SUCCESS
==================================================

=== FILE SUCCESS - 2025-10-15 06:19:15 ===
File index: 010356
File number: 2327/9727
Input file: /data/retarget/locomotion/raw/AMASS_SMPLXG/HDM05/bk/HDM_bk_03-02_01_120_stageii.npz
Output file: ../robot/ik_based/pkl/010356.pkl
Processing time: 154.88 seconds
Total file time: 156.05 seconds
Status: SUCCESS
==================================================

=== SUCCESS LOG - 2025-10-15 06:21:22 ===
Input file: /data/retarget/locomotion/raw/AMASS_SMPLXG/HDM05/bk/HDM_bk_03-02_02_120_stageii.npz
Output file: ../robot/ik_based/pkl/010357.pkl
Robot type: unitree_g1
Processing time: 126.93 seconds

STEP-BY-STEP TIMING:
  Step 1 - Load SMPLX:        31.69s
  Step 2 - Align FPS:         8.12s
  Step 3 - Init Retarget:     0.27s
  Step 4 - Init Visualization: 0.00s
  Step 5 - Process Frames:    86.75s (avg: 0.084s/frame)
  Step 6 - Convert Arrays:    0.00s
  Step 7 - Forward Kinematics: 0.05s
  Step 8 - Save Data:         0.01s
Status: SUCCESS
==================================================

=== FILE SUCCESS - 2025-10-15 06:21:23 ===
File index: 010357
File number: 2328/9727
Input file: /data/retarget/locomotion/raw/AMASS_SMPLXG/HDM05/bk/HDM_bk_03-02_02_120_stageii.npz
Output file: ../robot/ik_based/pkl/010357.pkl
Processing time: 126.93 seconds
Total file time: 127.80 seconds
Status: SUCCESS
==================================================

=== SUCCESS LOG - 2025-10-15 06:23:28 ===
Input file: /data/retarget/locomotion/raw/AMASS_SMPLXG/HDM05/bk/HDM_bk_03-02_03_120_stageii.npz
Output file: ../robot/ik_based/pkl/010358.pkl
Robot type: unitree_g1
Processing time: 125.35 seconds

STEP-BY-STEP TIMING:
  Step 1 - Load SMPLX:        32.92s
  Step 2 - Align FPS:         9.33s
  Step 3 - Init Retarget:     0.33s
  Step 4 - Init Visualization: 0.00s
  Step 5 - Process Frames:    82.64s (avg: 0.077s/frame)
  Step 6 - Convert Arrays:    0.00s
  Step 7 - Forward Kinematics: 0.05s
  Step 8 - Save Data:         0.01s
Status: SUCCESS
==================================================

=== FILE SUCCESS - 2025-10-15 06:23:29 ===
File index: 010358
File number: 2329/9727
Input file: /data/retarget/locomotion/raw/AMASS_SMPLXG/HDM05/bk/HDM_bk_03-02_03_120_stageii.npz
Output file: ../robot/ik_based/pkl/010358.pkl
Processing time: 125.35 seconds
Total file time: 126.03 seconds
Status: SUCCESS
==================================================

=== SUCCESS LOG - 2025-10-15 06:25:26 ===
Input file: /data/retarget/locomotion/raw/AMASS_SMPLXG/HDM05/bk/HDM_bk_03-03_01_120_stageii.npz
Output file: ../robot/ik_based/pkl/010359.pkl
Robot type: unitree_g1
Processing time: 116.98 seconds

STEP-BY-STEP TIMING:
  Step 1 - Load SMPLX:        21.61s
  Step 2 - Align FPS:         15.29s
  Step 3 - Init Retarget:     0.32s
  Step 4 - Init Visualization: 0.00s
  Step 5 - Process Frames:    79.41s (avg: 0.072s/frame)
  Step 6 - Convert Arrays:    0.00s
  Step 7 - Forward Kinematics: 0.27s
  Step 8 - Save Data:         0.01s
Status: SUCCESS
==================================================

=== FILE SUCCESS - 2025-10-15 06:25:27 ===
File index: 010359
File number: 2330/9727
Input file: /data/retarget/locomotion/raw/AMASS_SMPLXG/HDM05/bk/HDM_bk_03-03_01_120_stageii.npz
Output file: ../robot/ik_based/pkl/010359.pkl
Processing time: 116.98 seconds
Total file time: 117.92 seconds
Status: SUCCESS
==================================================

=== SUCCESS LOG - 2025-10-15 06:27:23 ===
Input file: /data/retarget/locomotion/raw/AMASS_SMPLXG/HDM05/bk/HDM_bk_03-03_02_120_stageii.npz
Output file: ../robot/ik_based/pkl/010360.pkl
Robot type: unitree_g1
Processing time: 116.00 seconds

STEP-BY-STEP TIMING:
  Step 1 - Load SMPLX:        11.97s
  Step 2 - Align FPS:         17.24s
  Step 3 - Init Retarget:     0.33s
  Step 4 - Init Visualization: 0.00s
  Step 5 - Process Frames:    86.32s (avg: 0.069s/frame)
  Step 6 - Convert Arrays:    0.00s
  Step 7 - Forward Kinematics: 0.06s
  Step 8 - Save Data:         0.01s
Status: SUCCESS
==================================================

=== FILE SUCCESS - 2025-10-15 06:27:24 ===
File index: 010360
File number: 2331/9727
Input file: /data/retarget/locomotion/raw/AMASS_SMPLXG/HDM05/bk/HDM_bk_03-03_02_120_stageii.npz
Output file: ../robot/ik_based/pkl/010360.pkl
Processing time: 116.00 seconds
Total file time: 116.85 seconds
Status: SUCCESS
==================================================

=== SUCCESS LOG - 2025-10-15 06:29:28 ===
Input file: /data/retarget/locomotion/raw/AMASS_SMPLXG/HDM05/bk/HDM_bk_03-03_03_120_stageii.npz
Output file: ../robot/ik_based/pkl/010361.pkl
Robot type: unitree_g1
Processing time: 124.73 seconds

STEP-BY-STEP TIMING:
  Step 1 - Load SMPLX:        9.06s
  Step 2 - Align FPS:         13.50s
  Step 3 - Init Retarget:     0.94s
  Step 4 - Init Visualization: 0.00s
  Step 5 - Process Frames:    101.04s (avg: 0.084s/frame)
  Step 6 - Convert Arrays:    0.01s
  Step 7 - Forward Kinematics: 0.07s
  Step 8 - Save Data:         0.00s
Status: SUCCESS
==================================================

=== FILE SUCCESS - 2025-10-15 06:29:30 ===
File index: 010361
File number: 2332/9727
Input file: /data/retarget/locomotion/raw/AMASS_SMPLXG/HDM05/bk/HDM_bk_03-03_03_120_stageii.npz
Output file: ../robot/ik_based/pkl/010361.pkl
Processing time: 124.73 seconds
Total file time: 125.86 seconds
Status: SUCCESS
==================================================

=== SUCCESS LOG - 2025-10-15 06:32:49 ===
Input file: /data/retarget/locomotion/raw/AMASS_SMPLXG/HDM05/bk/HDM_bk_03-04_01_120_stageii.npz
Output file: ../robot/ik_based/pkl/010362.pkl
Robot type: unitree_g1
Processing time: 198.92 seconds

STEP-BY-STEP TIMING:
  Step 1 - Load SMPLX:        17.20s
  Step 2 - Align FPS:         53.41s
  Step 3 - Init Retarget:     0.28s
  Step 4 - Init Visualization: 0.00s
  Step 5 - Process Frames:    127.77s (avg: 0.045s/frame)
  Step 6 - Convert Arrays:    0.01s
  Step 7 - Forward Kinematics: 0.06s
  Step 8 - Save Data:         0.01s
Status: SUCCESS
==================================================

=== FILE SUCCESS - 2025-10-15 06:32:51 ===
File index: 010362
File number: 2333/9727
Input file: /data/retarget/locomotion/raw/AMASS_SMPLXG/HDM05/bk/HDM_bk_03-04_01_120_stageii.npz
Output file: ../robot/ik_based/pkl/010362.pkl
Processing time: 198.92 seconds
Total file time: 201.31 seconds
Status: SUCCESS
==================================================

=== SUCCESS LOG - 2025-10-15 06:35:12 ===
Input file: /data/retarget/locomotion/raw/AMASS_SMPLXG/HDM05/bk/HDM_bk_03-04_02_120_stageii.npz
Output file: ../robot/ik_based/pkl/010363.pkl
Robot type: unitree_g1
Processing time: 141.16 seconds

STEP-BY-STEP TIMING:
  Step 1 - Load SMPLX:        5.09s
  Step 2 - Align FPS:         12.30s
  Step 3 - Init Retarget:     0.32s
  Step 4 - Init Visualization: 0.00s
  Step 5 - Process Frames:    123.18s (avg: 0.066s/frame)
  Step 6 - Convert Arrays:    0.01s
  Step 7 - Forward Kinematics: 0.17s
  Step 8 - Save Data:         0.01s
Status: SUCCESS
==================================================

=== FILE SUCCESS - 2025-10-15 06:35:14 ===
File index: 010363
File number: 2334/9727
Input file: /data/retarget/locomotion/raw/AMASS_SMPLXG/HDM05/bk/HDM_bk_03-04_02_120_stageii.npz
Output file: ../robot/ik_based/pkl/010363.pkl
Processing time: 141.16 seconds
Total file time: 142.86 seconds
Status: SUCCESS
==================================================

=== SUCCESS LOG - 2025-10-15 06:37:52 ===
Input file: /data/retarget/locomotion/raw/AMASS_SMPLXG/HDM05/bk/HDM_bk_03-04_03_120_stageii.npz
Output file: ../robot/ik_based/pkl/010364.pkl
Robot type: unitree_g1
Processing time: 158.16 seconds

STEP-BY-STEP TIMING:
  Step 1 - Load SMPLX:        15.62s
  Step 2 - Align FPS:         12.49s
  Step 3 - Init Retarget:     0.42s
  Step 4 - Init Visualization: 0.00s
  Step 5 - Process Frames:    129.49s (avg: 0.066s/frame)
  Step 6 - Convert Arrays:    0.01s
  Step 7 - Forward Kinematics: 0.06s
  Step 8 - Save Data:         0.01s
Status: SUCCESS
==================================================

=== FILE SUCCESS - 2025-10-15 06:37:53 ===
File index: 010364
File number: 2335/9727
Input file: /data/retarget/locomotion/raw/AMASS_SMPLXG/HDM05/bk/HDM_bk_03-04_03_120_stageii.npz
Output file: ../robot/ik_based/pkl/010364.pkl
Processing time: 158.16 seconds
Total file time: 159.43 seconds
Status: SUCCESS
==================================================

=== SUCCESS LOG - 2025-10-15 06:40:33 ===
Input file: /data/retarget/locomotion/raw/AMASS_SMPLXG/HDM05/bk/HDM_bk_03-04_04_120_stageii.npz
Output file: ../robot/ik_based/pkl/010365.pkl
Robot type: unitree_g1
Processing time: 159.81 seconds

STEP-BY-STEP TIMING:
  Step 1 - Load SMPLX:        14.80s
  Step 2 - Align FPS:         11.54s
  Step 3 - Init Retarget:     0.34s
  Step 4 - Init Visualization: 0.00s
  Step 5 - Process Frames:    132.83s (avg: 0.073s/frame)
  Step 6 - Convert Arrays:    0.04s
  Step 7 - Forward Kinematics: 0.09s
  Step 8 - Save Data:         0.02s
Status: SUCCESS
==================================================

=== FILE SUCCESS - 2025-10-15 06:40:34 ===
File index: 010365
File number: 2336/9727
Input file: /data/retarget/locomotion/raw/AMASS_SMPLXG/HDM05/bk/HDM_bk_03-04_04_120_stageii.npz
Output file: ../robot/ik_based/pkl/010365.pkl
Processing time: 159.81 seconds
Total file time: 161.23 seconds
Status: SUCCESS
==================================================

=== SKIPPED (ALREADY EXISTS) - 2025-10-15 06:40:34 ===
File index: 010366
Input file: /data/retarget/locomotion/raw/AMASS_SMPLXG/HDM05/bk/HDM_bk_03-05_01_120_stageii.npz
Output file: ../robot/ik_based/pkl/010366.pkl
Status: SKIPPED (ALREADY EXISTS)
==================================================

=== SUCCESS LOG - 2025-10-15 06:42:17 ===
Input file: /data/retarget/locomotion/raw/AMASS_SMPLXG/HDM05/bk/HDM_bk_03-05_02_120_stageii.npz
Output file: ../robot/ik_based/pkl/010367.pkl
Robot type: unitree_g1
Processing time: 102.82 seconds

STEP-BY-STEP TIMING:
  Step 1 - Load SMPLX:        10.73s
  Step 2 - Align FPS:         9.82s
  Step 3 - Init Retarget:     0.34s
  Step 4 - Init Visualization: 0.00s
  Step 5 - Process Frames:    81.55s (avg: 0.070s/frame)
  Step 6 - Convert Arrays:    0.02s
  Step 7 - Forward Kinematics: 0.14s
  Step 8 - Save Data:         0.03s
Status: SUCCESS
==================================================

=== FILE SUCCESS - 2025-10-15 06:42:18 ===
File index: 010367
File number: 2338/9727
Input file: /data/retarget/locomotion/raw/AMASS_SMPLXG/HDM05/bk/HDM_bk_03-05_02_120_stageii.npz
Output file: ../robot/ik_based/pkl/010367.pkl
Processing time: 102.82 seconds
Total file time: 103.99 seconds
Status: SUCCESS
==================================================

=== SUCCESS LOG - 2025-10-15 06:44:09 ===
Input file: /data/retarget/locomotion/raw/AMASS_SMPLXG/HDM05/bk/HDM_bk_03-05_03_120_stageii.npz
Output file: ../robot/ik_based/pkl/010368.pkl
Robot type: unitree_g1
Processing time: 110.83 seconds

STEP-BY-STEP TIMING:
  Step 1 - Load SMPLX:        26.94s
  Step 2 - Align FPS:         8.99s
  Step 3 - Init Retarget:     0.27s
  Step 4 - Init Visualization: 0.00s
  Step 5 - Process Frames:    74.18s (avg: 0.064s/frame)
  Step 6 - Convert Arrays:    0.01s
  Step 7 - Forward Kinematics: 0.19s
  Step 8 - Save Data:         0.01s
Status: SUCCESS
==================================================

=== FILE SUCCESS - 2025-10-15 06:44:10 ===
File index: 010368
File number: 2339/9727
Input file: /data/retarget/locomotion/raw/AMASS_SMPLXG/HDM05/bk/HDM_bk_03-05_03_120_stageii.npz
Output file: ../robot/ik_based/pkl/010368.pkl
Processing time: 110.83 seconds
Total file time: 111.79 seconds
Status: SUCCESS
==================================================

=== SUCCESS LOG - 2025-10-15 06:45:33 ===
Input file: /data/retarget/locomotion/raw/AMASS_SMPLXG/HDM05/bk/HDM_bk_03-11_01_120_stageii.npz
Output file: ../robot/ik_based/pkl/010369.pkl
Robot type: unitree_g1
Processing time: 82.82 seconds

STEP-BY-STEP TIMING:
  Step 1 - Load SMPLX:        28.64s
  Step 2 - Align FPS:         8.27s
  Step 3 - Init Retarget:     0.27s
  Step 4 - Init Visualization: 0.00s
  Step 5 - Process Frames:    45.35s (avg: 0.058s/frame)
  Step 6 - Convert Arrays:    0.00s
  Step 7 - Forward Kinematics: 0.20s
  Step 8 - Save Data:         0.01s
Status: SUCCESS
==================================================

=== FILE SUCCESS - 2025-10-15 06:45:34 ===
File index: 010369
File number: 2340/9727
Input file: /data/retarget/locomotion/raw/AMASS_SMPLXG/HDM05/bk/HDM_bk_03-11_01_120_stageii.npz
Output file: ../robot/ik_based/pkl/010369.pkl
Processing time: 82.82 seconds
Total file time: 83.79 seconds
Status: SUCCESS
==================================================

=== SUCCESS LOG - 2025-10-15 06:47:22 ===
Input file: /data/retarget/locomotion/raw/AMASS_SMPLXG/HDM05/bk/HDM_bk_03-11_02_120_stageii.npz
Output file: ../robot/ik_based/pkl/010370.pkl
Robot type: unitree_g1
Processing time: 108.39 seconds

STEP-BY-STEP TIMING:
  Step 1 - Load SMPLX:        50.88s
  Step 2 - Align FPS:         9.66s
  Step 3 - Init Retarget:     0.81s
  Step 4 - Init Visualization: 0.00s
  Step 5 - Process Frames:    46.67s (avg: 0.057s/frame)
  Step 6 - Convert Arrays:    0.00s
  Step 7 - Forward Kinematics: 0.09s
  Step 8 - Save Data:         0.03s
Status: SUCCESS
==================================================

=== FILE SUCCESS - 2025-10-15 06:47:24 ===
File index: 010370
File number: 2341/9727
Input file: /data/retarget/locomotion/raw/AMASS_SMPLXG/HDM05/bk/HDM_bk_03-11_02_120_stageii.npz
Output file: ../robot/ik_based/pkl/010370.pkl
Processing time: 108.39 seconds
Total file time: 109.71 seconds
Status: SUCCESS
==================================================

=== SUCCESS LOG - 2025-10-15 06:49:25 ===
Input file: /data/retarget/locomotion/raw/AMASS_SMPLXG/HDM05/bk/HDM_bk_03-11_03_120_stageii.npz
Output file: ../robot/ik_based/pkl/010371.pkl
Robot type: unitree_g1
Processing time: 121.55 seconds

STEP-BY-STEP TIMING:
  Step 1 - Load SMPLX:        52.64s
  Step 2 - Align FPS:         14.30s
  Step 3 - Init Retarget:     0.76s
  Step 4 - Init Visualization: 0.00s
  Step 5 - Process Frames:    53.63s (avg: 0.071s/frame)
  Step 6 - Convert Arrays:    0.01s
  Step 7 - Forward Kinematics: 0.11s
  Step 8 - Save Data:         0.00s
Status: SUCCESS
==================================================

=== FILE SUCCESS - 2025-10-15 06:49:26 ===
File index: 010371
File number: 2342/9727
Input file: /data/retarget/locomotion/raw/AMASS_SMPLXG/HDM05/bk/HDM_bk_03-11_03_120_stageii.npz
Output file: ../robot/ik_based/pkl/010371.pkl
Processing time: 121.55 seconds
Total file time: 122.36 seconds
Status: SUCCESS
==================================================
