
=== SKIPPED (ALREADY EXISTS) - 2025-10-14 11:05:20 ===
File index: 007063
Input file: /data/retarget/locomotion/raw/AMASS_SMPLXG/CMU/79/79_29_stageii.npz
Output file: ../robot/ik_based/pkl/007063.pkl
Status: SKIPPED (ALREADY EXISTS)
==================================================

=== SUCCESS LOG - 2025-10-14 11:05:29 ===
Input file: /data/retarget/locomotion/raw/AMASS_SMPLXG/CMU/79/79_30_stageii.npz
Output file: ../robot/ik_based/pkl/007064.pkl
Robot type: unitree_g1
Processing time: 9.19 seconds

STEP-BY-STEP TIMING:
  Step 1 - Load SMPLX:        0.94s
  Step 2 - Align FPS:         0.89s
  Step 3 - Init Retarget:     0.94s
  Step 4 - Init Visualization: 0.00s
  Step 5 - Process Frames:    4.09s
  Step 6 - Convert Arrays:    0.00s
  Step 7 - Forward Kinematics: 2.30s
  Step 8 - Save Data:         0.00s
Status: SUCCESS
==================================================

=== FILE SUCCESS - 2025-10-14 11:05:30 ===
File index: 007064
File number: 2/1001
Input file: /data/retarget/locomotion/raw/AMASS_SMPLXG/CMU/79/79_30_stageii.npz
Output file: ../robot/ik_based/pkl/007064.pkl
Processing time: 9.19 seconds
Total file time: 9.42 seconds
Status: SUCCESS
==================================================

=== SUCCESS LOG - 2025-10-14 11:05:34 ===
Input file: /data/retarget/locomotion/raw/AMASS_SMPLXG/CMU/79/79_31_stageii.npz
Output file: ../robot/ik_based/pkl/007065.pkl
Robot type: unitree_g1
Processing time: 4.58 seconds

STEP-BY-STEP TIMING:
  Step 1 - Load SMPLX:        0.84s
  Step 2 - Align FPS:         0.63s
  Step 3 - Init Retarget:     0.26s
  Step 4 - Init Visualization: 0.00s
  Step 5 - Process Frames:    2.47s
  Step 6 - Convert Arrays:    0.00s
  Step 7 - Forward Kinematics: 0.36s
  Step 8 - Save Data:         0.00s
Status: SUCCESS
==================================================

=== FILE SUCCESS - 2025-10-14 11:05:34 ===
File index: 007065
File number: 3/1001
Input file: /data/retarget/locomotion/raw/AMASS_SMPLXG/CMU/79/79_31_stageii.npz
Output file: ../robot/ik_based/pkl/007065.pkl
Processing time: 4.58 seconds
Total file time: 4.74 seconds
Status: SUCCESS
==================================================

=== SUCCESS LOG - 2025-10-14 11:05:41 ===
Input file: /data/retarget/locomotion/raw/AMASS_SMPLXG/CMU/79/79_32_stageii.npz
Output file: ../robot/ik_based/pkl/007066.pkl
Robot type: unitree_g1
Processing time: 6.77 seconds

STEP-BY-STEP TIMING:
  Step 1 - Load SMPLX:        0.95s
  Step 2 - Align FPS:         1.07s
  Step 3 - Init Retarget:     0.26s
  Step 4 - Init Visualization: 0.00s
  Step 5 - Process Frames:    4.28s
  Step 6 - Convert Arrays:    0.00s
  Step 7 - Forward Kinematics: 0.18s
  Step 8 - Save Data:         0.00s
Status: SUCCESS
==================================================

=== FILE SUCCESS - 2025-10-14 11:05:41 ===
File index: 007066
File number: 4/1001
Input file: /data/retarget/locomotion/raw/AMASS_SMPLXG/CMU/79/79_32_stageii.npz
Output file: ../robot/ik_based/pkl/007066.pkl
Processing time: 6.77 seconds
Total file time: 6.98 seconds
Status: SUCCESS
==================================================

=== SUCCESS LOG - 2025-10-14 11:05:46 ===
Input file: /data/retarget/locomotion/raw/AMASS_SMPLXG/CMU/79/79_33_stageii.npz
Output file: ../robot/ik_based/pkl/007067.pkl
Robot type: unitree_g1
Processing time: 4.15 seconds

STEP-BY-STEP TIMING:
  Step 1 - Load SMPLX:        0.83s
  Step 2 - Align FPS:         0.64s
  Step 3 - Init Retarget:     0.22s
  Step 4 - Init Visualization: 0.00s
  Step 5 - Process Frames:    2.41s
  Step 6 - Convert Arrays:    0.00s
  Step 7 - Forward Kinematics: 0.02s
  Step 8 - Save Data:         0.00s
Status: SUCCESS
==================================================

=== FILE SUCCESS - 2025-10-14 11:05:46 ===
File index: 007067
File number: 5/1001
Input file: /data/retarget/locomotion/raw/AMASS_SMPLXG/CMU/79/79_33_stageii.npz
Output file: ../robot/ik_based/pkl/007067.pkl
Processing time: 4.15 seconds
Total file time: 4.33 seconds
Status: SUCCESS
==================================================

=== SUCCESS LOG - 2025-10-14 11:05:51 ===
Input file: /data/retarget/locomotion/raw/AMASS_SMPLXG/CMU/79/79_34_stageii.npz
Output file: ../robot/ik_based/pkl/007068.pkl
Robot type: unitree_g1
Processing time: 5.26 seconds

STEP-BY-STEP TIMING:
  Step 1 - Load SMPLX:        0.89s
  Step 2 - Align FPS:         0.81s
  Step 3 - Init Retarget:     0.28s
  Step 4 - Init Visualization: 0.00s
  Step 5 - Process Frames:    3.24s
  Step 6 - Convert Arrays:    0.00s
  Step 7 - Forward Kinematics: 0.02s
  Step 8 - Save Data:         0.00s
Status: SUCCESS
==================================================

=== FILE SUCCESS - 2025-10-14 11:05:51 ===
File index: 007068
File number: 6/1001
Input file: /data/retarget/locomotion/raw/AMASS_SMPLXG/CMU/79/79_34_stageii.npz
Output file: ../robot/ik_based/pkl/007068.pkl
Processing time: 5.26 seconds
Total file time: 5.44 seconds
Status: SUCCESS
==================================================

=== SUCCESS LOG - 2025-10-14 11:05:59 ===
Input file: /data/retarget/locomotion/raw/AMASS_SMPLXG/CMU/79/79_35_stageii.npz
Output file: ../robot/ik_based/pkl/007069.pkl
Robot type: unitree_g1
Processing time: 7.85 seconds

STEP-BY-STEP TIMING:
  Step 1 - Load SMPLX:        1.02s
  Step 2 - Align FPS:         1.24s
  Step 3 - Init Retarget:     0.21s
  Step 4 - Init Visualization: 0.00s
  Step 5 - Process Frames:    5.34s
  Step 6 - Convert Arrays:    0.00s
  Step 7 - Forward Kinematics: 0.02s
  Step 8 - Save Data:         0.00s
Status: SUCCESS
==================================================

=== FILE SUCCESS - 2025-10-14 11:05:59 ===
File index: 007069
File number: 7/1001
Input file: /data/retarget/locomotion/raw/AMASS_SMPLXG/CMU/79/79_35_stageii.npz
Output file: ../robot/ik_based/pkl/007069.pkl
Processing time: 7.85 seconds
Total file time: 8.13 seconds
Status: SUCCESS
==================================================

=== SUCCESS LOG - 2025-10-14 11:06:03 ===
Input file: /data/retarget/locomotion/raw/AMASS_SMPLXG/CMU/79/79_36_stageii.npz
Output file: ../robot/ik_based/pkl/007070.pkl
Robot type: unitree_g1
Processing time: 3.93 seconds

STEP-BY-STEP TIMING:
  Step 1 - Load SMPLX:        0.82s
  Step 2 - Align FPS:         0.56s
  Step 3 - Init Retarget:     0.28s
  Step 4 - Init Visualization: 0.00s
  Step 5 - Process Frames:    2.23s
  Step 6 - Convert Arrays:    0.00s
  Step 7 - Forward Kinematics: 0.02s
  Step 8 - Save Data:         0.00s
Status: SUCCESS
==================================================

=== FILE SUCCESS - 2025-10-14 11:06:03 ===
File index: 007070
File number: 8/1001
Input file: /data/retarget/locomotion/raw/AMASS_SMPLXG/CMU/79/79_36_stageii.npz
Output file: ../robot/ik_based/pkl/007070.pkl
Processing time: 3.93 seconds
Total file time: 4.08 seconds
Status: SUCCESS
==================================================

=== SUCCESS LOG - 2025-10-14 11:06:08 ===
Input file: /data/retarget/locomotion/raw/AMASS_SMPLXG/CMU/79/79_37_stageii.npz
Output file: ../robot/ik_based/pkl/007071.pkl
Robot type: unitree_g1
Processing time: 4.40 seconds

STEP-BY-STEP TIMING:
  Step 1 - Load SMPLX:        0.85s
  Step 2 - Align FPS:         0.66s
  Step 3 - Init Retarget:     0.21s
  Step 4 - Init Visualization: 0.00s
  Step 5 - Process Frames:    2.63s
  Step 6 - Convert Arrays:    0.00s
  Step 7 - Forward Kinematics: 0.02s
  Step 8 - Save Data:         0.00s
Status: SUCCESS
==================================================

=== FILE SUCCESS - 2025-10-14 11:06:08 ===
File index: 007071
File number: 9/1001
Input file: /data/retarget/locomotion/raw/AMASS_SMPLXG/CMU/79/79_37_stageii.npz
Output file: ../robot/ik_based/pkl/007071.pkl
Processing time: 4.40 seconds
Total file time: 4.55 seconds
Status: SUCCESS
==================================================

=== SUCCESS LOG - 2025-10-14 11:06:12 ===
Input file: /data/retarget/locomotion/raw/AMASS_SMPLXG/CMU/79/79_38_stageii.npz
Output file: ../robot/ik_based/pkl/007072.pkl
Robot type: unitree_g1
Processing time: 3.87 seconds

STEP-BY-STEP TIMING:
  Step 1 - Load SMPLX:        0.81s
  Step 2 - Align FPS:         0.61s
  Step 3 - Init Retarget:     0.17s
  Step 4 - Init Visualization: 0.00s
  Step 5 - Process Frames:    2.23s
  Step 6 - Convert Arrays:    0.00s
  Step 7 - Forward Kinematics: 0.02s
  Step 8 - Save Data:         0.00s
Status: SUCCESS
==================================================

=== FILE SUCCESS - 2025-10-14 11:06:12 ===
File index: 007072
File number: 10/1001
Input file: /data/retarget/locomotion/raw/AMASS_SMPLXG/CMU/79/79_38_stageii.npz
Output file: ../robot/ik_based/pkl/007072.pkl
Processing time: 3.87 seconds
Total file time: 4.03 seconds
Status: SUCCESS
==================================================

=== SUCCESS LOG - 2025-10-14 11:06:17 ===
Input file: /data/retarget/locomotion/raw/AMASS_SMPLXG/CMU/79/79_39_stageii.npz
Output file: ../robot/ik_based/pkl/007073.pkl
Robot type: unitree_g1
Processing time: 5.33 seconds

STEP-BY-STEP TIMING:
  Step 1 - Load SMPLX:        0.89s
  Step 2 - Align FPS:         0.89s
  Step 3 - Init Retarget:     0.25s
  Step 4 - Init Visualization: 0.00s
  Step 5 - Process Frames:    3.27s
  Step 6 - Convert Arrays:    0.00s
  Step 7 - Forward Kinematics: 0.02s
  Step 8 - Save Data:         0.00s
Status: SUCCESS
==================================================

=== FILE SUCCESS - 2025-10-14 11:06:18 ===
File index: 007073
File number: 11/1001
Input file: /data/retarget/locomotion/raw/AMASS_SMPLXG/CMU/79/79_39_stageii.npz
Output file: ../robot/ik_based/pkl/007073.pkl
Processing time: 5.33 seconds
Total file time: 5.53 seconds
Status: SUCCESS
==================================================

=== SUCCESS LOG - 2025-10-14 11:06:23 ===
Input file: /data/retarget/locomotion/raw/AMASS_SMPLXG/CMU/79/79_40_stageii.npz
Output file: ../robot/ik_based/pkl/007074.pkl
Robot type: unitree_g1
Processing time: 5.68 seconds

STEP-BY-STEP TIMING:
  Step 1 - Load SMPLX:        0.92s
  Step 2 - Align FPS:         0.92s
  Step 3 - Init Retarget:     0.24s
  Step 4 - Init Visualization: 0.00s
  Step 5 - Process Frames:    3.56s
  Step 6 - Convert Arrays:    0.00s
  Step 7 - Forward Kinematics: 0.02s
  Step 8 - Save Data:         0.00s
Status: SUCCESS
==================================================

=== FILE SUCCESS - 2025-10-14 11:06:23 ===
File index: 007074
File number: 12/1001
Input file: /data/retarget/locomotion/raw/AMASS_SMPLXG/CMU/79/79_40_stageii.npz
Output file: ../robot/ik_based/pkl/007074.pkl
Processing time: 5.68 seconds
Total file time: 5.88 seconds
Status: SUCCESS
==================================================

=== SUCCESS LOG - 2025-10-14 11:06:30 ===
Input file: /data/retarget/locomotion/raw/AMASS_SMPLXG/CMU/79/79_41_stageii.npz
Output file: ../robot/ik_based/pkl/007075.pkl
Robot type: unitree_g1
Processing time: 6.83 seconds

STEP-BY-STEP TIMING:
  Step 1 - Load SMPLX:        0.99s
  Step 2 - Align FPS:         1.17s
  Step 3 - Init Retarget:     0.19s
  Step 4 - Init Visualization: 0.00s
  Step 5 - Process Frames:    4.43s
  Step 6 - Convert Arrays:    0.00s
  Step 7 - Forward Kinematics: 0.02s
  Step 8 - Save Data:         0.00s
Status: SUCCESS
==================================================

=== FILE SUCCESS - 2025-10-14 11:06:30 ===
File index: 007075
File number: 13/1001
Input file: /data/retarget/locomotion/raw/AMASS_SMPLXG/CMU/79/79_41_stageii.npz
Output file: ../robot/ik_based/pkl/007075.pkl
Processing time: 6.83 seconds
Total file time: 7.09 seconds
Status: SUCCESS
==================================================

=== SUCCESS LOG - 2025-10-14 11:06:36 ===
Input file: /data/retarget/locomotion/raw/AMASS_SMPLXG/CMU/79/79_42_stageii.npz
Output file: ../robot/ik_based/pkl/007076.pkl
Robot type: unitree_g1
Processing time: 5.26 seconds

STEP-BY-STEP TIMING:
  Step 1 - Load SMPLX:        0.88s
  Step 2 - Align FPS:         0.86s
  Step 3 - Init Retarget:     0.28s
  Step 4 - Init Visualization: 0.00s
  Step 5 - Process Frames:    3.20s
  Step 6 - Convert Arrays:    0.00s
  Step 7 - Forward Kinematics: 0.02s
  Step 8 - Save Data:         0.00s
Status: SUCCESS
==================================================

=== FILE SUCCESS - 2025-10-14 11:06:36 ===
File index: 007076
File number: 14/1001
Input file: /data/retarget/locomotion/raw/AMASS_SMPLXG/CMU/79/79_42_stageii.npz
Output file: ../robot/ik_based/pkl/007076.pkl
Processing time: 5.26 seconds
Total file time: 5.45 seconds
Status: SUCCESS
==================================================

=== SUCCESS LOG - 2025-10-14 11:06:42 ===
Input file: /data/retarget/locomotion/raw/AMASS_SMPLXG/CMU/79/79_43_stageii.npz
Output file: ../robot/ik_based/pkl/007077.pkl
Robot type: unitree_g1
Processing time: 6.32 seconds

STEP-BY-STEP TIMING:
  Step 1 - Load SMPLX:        0.93s
  Step 2 - Align FPS:         1.05s
  Step 3 - Init Retarget:     0.20s
  Step 4 - Init Visualization: 0.00s
  Step 5 - Process Frames:    4.10s
  Step 6 - Convert Arrays:    0.00s
  Step 7 - Forward Kinematics: 0.02s
  Step 8 - Save Data:         0.00s
Status: SUCCESS
==================================================

=== FILE SUCCESS - 2025-10-14 11:06:42 ===
File index: 007077
File number: 15/1001
Input file: /data/retarget/locomotion/raw/AMASS_SMPLXG/CMU/79/79_43_stageii.npz
Output file: ../robot/ik_based/pkl/007077.pkl
Processing time: 6.32 seconds
Total file time: 6.55 seconds
Status: SUCCESS
==================================================

=== SUCCESS LOG - 2025-10-14 11:06:48 ===
Input file: /data/retarget/locomotion/raw/AMASS_SMPLXG/CMU/79/79_44_stageii.npz
Output file: ../robot/ik_based/pkl/007078.pkl
Robot type: unitree_g1
Processing time: 5.84 seconds

STEP-BY-STEP TIMING:
  Step 1 - Load SMPLX:        0.91s
  Step 2 - Align FPS:         0.92s
  Step 3 - Init Retarget:     0.19s
  Step 4 - Init Visualization: 0.00s
  Step 5 - Process Frames:    3.79s
  Step 6 - Convert Arrays:    0.00s
  Step 7 - Forward Kinematics: 0.02s
  Step 8 - Save Data:         0.00s
Status: SUCCESS
==================================================

=== FILE SUCCESS - 2025-10-14 11:06:49 ===
File index: 007078
File number: 16/1001
Input file: /data/retarget/locomotion/raw/AMASS_SMPLXG/CMU/79/79_44_stageii.npz
Output file: ../robot/ik_based/pkl/007078.pkl
Processing time: 5.84 seconds
Total file time: 6.04 seconds
Status: SUCCESS
==================================================

=== SUCCESS LOG - 2025-10-14 11:06:55 ===
Input file: /data/retarget/locomotion/raw/AMASS_SMPLXG/CMU/79/79_45_stageii.npz
Output file: ../robot/ik_based/pkl/007079.pkl
Robot type: unitree_g1
Processing time: 6.29 seconds

STEP-BY-STEP TIMING:
  Step 1 - Load SMPLX:        0.91s
  Step 2 - Align FPS:         0.93s
  Step 3 - Init Retarget:     0.18s
  Step 4 - Init Visualization: 0.00s
  Step 5 - Process Frames:    4.23s
  Step 6 - Convert Arrays:    0.00s
  Step 7 - Forward Kinematics: 0.02s
  Step 8 - Save Data:         0.00s
Status: SUCCESS
==================================================

=== FILE SUCCESS - 2025-10-14 11:06:55 ===
File index: 007079
File number: 17/1001
Input file: /data/retarget/locomotion/raw/AMASS_SMPLXG/CMU/79/79_45_stageii.npz
Output file: ../robot/ik_based/pkl/007079.pkl
Processing time: 6.29 seconds
Total file time: 6.51 seconds
Status: SUCCESS
==================================================

=== SUCCESS LOG - 2025-10-14 11:07:04 ===
Input file: /data/retarget/locomotion/raw/AMASS_SMPLXG/CMU/79/79_46_stageii.npz
Output file: ../robot/ik_based/pkl/007080.pkl
Robot type: unitree_g1
Processing time: 9.05 seconds

STEP-BY-STEP TIMING:
  Step 1 - Load SMPLX:        1.04s
  Step 2 - Align FPS:         1.37s
  Step 3 - Init Retarget:     0.20s
  Step 4 - Init Visualization: 0.00s
  Step 5 - Process Frames:    6.40s
  Step 6 - Convert Arrays:    0.00s
  Step 7 - Forward Kinematics: 0.02s
  Step 8 - Save Data:         0.00s
Status: SUCCESS
==================================================

=== FILE SUCCESS - 2025-10-14 11:07:04 ===
File index: 007080
File number: 18/1001
Input file: /data/retarget/locomotion/raw/AMASS_SMPLXG/CMU/79/79_46_stageii.npz
Output file: ../robot/ik_based/pkl/007080.pkl
Processing time: 9.05 seconds
Total file time: 9.33 seconds
Status: SUCCESS
==================================================

=== SUCCESS LOG - 2025-10-14 11:07:13 ===
Input file: /data/retarget/locomotion/raw/AMASS_SMPLXG/CMU/79/79_47_stageii.npz
Output file: ../robot/ik_based/pkl/007081.pkl
Robot type: unitree_g1
Processing time: 8.71 seconds

STEP-BY-STEP TIMING:
  Step 1 - Load SMPLX:        1.02s
  Step 2 - Align FPS:         1.30s
  Step 3 - Init Retarget:     0.26s
  Step 4 - Init Visualization: 0.00s
  Step 5 - Process Frames:    6.08s
  Step 6 - Convert Arrays:    0.00s
  Step 7 - Forward Kinematics: 0.02s
  Step 8 - Save Data:         0.00s
Status: SUCCESS
==================================================

=== FILE SUCCESS - 2025-10-14 11:07:13 ===
File index: 007081
File number: 19/1001
Input file: /data/retarget/locomotion/raw/AMASS_SMPLXG/CMU/79/79_47_stageii.npz
Output file: ../robot/ik_based/pkl/007081.pkl
Processing time: 8.71 seconds
Total file time: 8.95 seconds
Status: SUCCESS
==================================================

=== SUCCESS LOG - 2025-10-14 11:07:22 ===
Input file: /data/retarget/locomotion/raw/AMASS_SMPLXG/CMU/79/79_48_stageii.npz
Output file: ../robot/ik_based/pkl/007082.pkl
Robot type: unitree_g1
Processing time: 8.55 seconds

STEP-BY-STEP TIMING:
  Step 1 - Load SMPLX:        1.03s
  Step 2 - Align FPS:         1.33s
  Step 3 - Init Retarget:     0.20s
  Step 4 - Init Visualization: 0.00s
  Step 5 - Process Frames:    5.95s
  Step 6 - Convert Arrays:    0.00s
  Step 7 - Forward Kinematics: 0.02s
  Step 8 - Save Data:         0.00s
Status: SUCCESS
==================================================

=== FILE SUCCESS - 2025-10-14 11:07:22 ===
File index: 007082
File number: 20/1001
Input file: /data/retarget/locomotion/raw/AMASS_SMPLXG/CMU/79/79_48_stageii.npz
Output file: ../robot/ik_based/pkl/007082.pkl
Processing time: 8.55 seconds
Total file time: 8.80 seconds
Status: SUCCESS
==================================================

=== SUCCESS LOG - 2025-10-14 11:07:31 ===
Input file: /data/retarget/locomotion/raw/AMASS_SMPLXG/CMU/79/79_49_stageii.npz
Output file: ../robot/ik_based/pkl/007083.pkl
Robot type: unitree_g1
Processing time: 8.57 seconds

STEP-BY-STEP TIMING:
  Step 1 - Load SMPLX:        0.94s
  Step 2 - Align FPS:         1.10s
  Step 3 - Init Retarget:     0.17s
  Step 4 - Init Visualization: 0.00s
  Step 5 - Process Frames:    6.31s
  Step 6 - Convert Arrays:    0.00s
  Step 7 - Forward Kinematics: 0.02s
  Step 8 - Save Data:         0.00s
Status: SUCCESS
==================================================

=== FILE SUCCESS - 2025-10-14 11:07:31 ===
File index: 007083
File number: 21/1001
Input file: /data/retarget/locomotion/raw/AMASS_SMPLXG/CMU/79/79_49_stageii.npz
Output file: ../robot/ik_based/pkl/007083.pkl
Processing time: 8.57 seconds
Total file time: 8.81 seconds
Status: SUCCESS
==================================================

=== SUCCESS LOG - 2025-10-14 11:07:36 ===
Input file: /data/retarget/locomotion/raw/AMASS_SMPLXG/CMU/79/79_50_stageii.npz
Output file: ../robot/ik_based/pkl/007084.pkl
Robot type: unitree_g1
Processing time: 5.31 seconds

STEP-BY-STEP TIMING:
  Step 1 - Load SMPLX:        0.87s
  Step 2 - Align FPS:         0.79s
  Step 3 - Init Retarget:     0.25s
  Step 4 - Init Visualization: 0.00s
  Step 5 - Process Frames:    3.36s
  Step 6 - Convert Arrays:    0.00s
  Step 7 - Forward Kinematics: 0.02s
  Step 8 - Save Data:         0.00s
Status: SUCCESS
==================================================

=== FILE SUCCESS - 2025-10-14 11:07:36 ===
File index: 007084
File number: 22/1001
Input file: /data/retarget/locomotion/raw/AMASS_SMPLXG/CMU/79/79_50_stageii.npz
Output file: ../robot/ik_based/pkl/007084.pkl
Processing time: 5.31 seconds
Total file time: 5.49 seconds
Status: SUCCESS
==================================================

=== SUCCESS LOG - 2025-10-14 11:07:42 ===
Input file: /data/retarget/locomotion/raw/AMASS_SMPLXG/CMU/79/79_51_stageii.npz
Output file: ../robot/ik_based/pkl/007085.pkl
Robot type: unitree_g1
Processing time: 5.93 seconds

STEP-BY-STEP TIMING:
  Step 1 - Load SMPLX:        0.90s
  Step 2 - Align FPS:         0.92s
  Step 3 - Init Retarget:     0.19s
  Step 4 - Init Visualization: 0.00s
  Step 5 - Process Frames:    3.88s
  Step 6 - Convert Arrays:    0.00s
  Step 7 - Forward Kinematics: 0.02s
  Step 8 - Save Data:         0.00s
Status: SUCCESS
==================================================

=== FILE SUCCESS - 2025-10-14 11:07:43 ===
File index: 007085
File number: 23/1001
Input file: /data/retarget/locomotion/raw/AMASS_SMPLXG/CMU/79/79_51_stageii.npz
Output file: ../robot/ik_based/pkl/007085.pkl
Processing time: 5.93 seconds
Total file time: 6.11 seconds
Status: SUCCESS
==================================================

=== SUCCESS LOG - 2025-10-14 11:07:49 ===
Input file: /data/retarget/locomotion/raw/AMASS_SMPLXG/CMU/79/79_52_stageii.npz
Output file: ../robot/ik_based/pkl/007086.pkl
Robot type: unitree_g1
Processing time: 6.87 seconds

STEP-BY-STEP TIMING:
  Step 1 - Load SMPLX:        0.89s
  Step 2 - Align FPS:         0.96s
  Step 3 - Init Retarget:     0.16s
  Step 4 - Init Visualization: 0.00s
  Step 5 - Process Frames:    4.82s
  Step 6 - Convert Arrays:    0.00s
  Step 7 - Forward Kinematics: 0.02s
  Step 8 - Save Data:         0.00s
Status: SUCCESS
==================================================

=== FILE SUCCESS - 2025-10-14 11:07:50 ===
File index: 007086
File number: 24/1001
Input file: /data/retarget/locomotion/raw/AMASS_SMPLXG/CMU/79/79_52_stageii.npz
Output file: ../robot/ik_based/pkl/007086.pkl
Processing time: 6.87 seconds
Total file time: 7.07 seconds
Status: SUCCESS
==================================================

=== SUCCESS LOG - 2025-10-14 11:07:55 ===
Input file: /data/retarget/locomotion/raw/AMASS_SMPLXG/CMU/79/79_53_stageii.npz
Output file: ../robot/ik_based/pkl/007087.pkl
Robot type: unitree_g1
Processing time: 5.07 seconds

STEP-BY-STEP TIMING:
  Step 1 - Load SMPLX:        0.87s
  Step 2 - Align FPS:         0.81s
  Step 3 - Init Retarget:     0.16s
  Step 4 - Init Visualization: 0.00s
  Step 5 - Process Frames:    3.19s
  Step 6 - Convert Arrays:    0.00s
  Step 7 - Forward Kinematics: 0.02s
  Step 8 - Save Data:         0.00s
Status: SUCCESS
==================================================

=== FILE SUCCESS - 2025-10-14 11:07:55 ===
File index: 007087
File number: 25/1001
Input file: /data/retarget/locomotion/raw/AMASS_SMPLXG/CMU/79/79_53_stageii.npz
Output file: ../robot/ik_based/pkl/007087.pkl
Processing time: 5.07 seconds
Total file time: 5.25 seconds
Status: SUCCESS
==================================================

=== SUCCESS LOG - 2025-10-14 11:08:02 ===
Input file: /data/retarget/locomotion/raw/AMASS_SMPLXG/CMU/79/79_54_stageii.npz
Output file: ../robot/ik_based/pkl/007088.pkl
Robot type: unitree_g1
Processing time: 7.06 seconds

STEP-BY-STEP TIMING:
  Step 1 - Load SMPLX:        0.97s
  Step 2 - Align FPS:         1.23s
  Step 3 - Init Retarget:     0.16s
  Step 4 - Init Visualization: 0.00s
  Step 5 - Process Frames:    4.65s
  Step 6 - Convert Arrays:    0.00s
  Step 7 - Forward Kinematics: 0.02s
  Step 8 - Save Data:         0.00s
Status: SUCCESS
==================================================

=== FILE SUCCESS - 2025-10-14 11:08:02 ===
File index: 007088
File number: 26/1001
Input file: /data/retarget/locomotion/raw/AMASS_SMPLXG/CMU/79/79_54_stageii.npz
Output file: ../robot/ik_based/pkl/007088.pkl
Processing time: 7.06 seconds
Total file time: 7.29 seconds
Status: SUCCESS
==================================================

=== SUCCESS LOG - 2025-10-14 11:08:07 ===
Input file: /data/retarget/locomotion/raw/AMASS_SMPLXG/CMU/79/79_55_stageii.npz
Output file: ../robot/ik_based/pkl/007089.pkl
Robot type: unitree_g1
Processing time: 4.70 seconds

STEP-BY-STEP TIMING:
  Step 1 - Load SMPLX:        0.83s
  Step 2 - Align FPS:         0.69s
  Step 3 - Init Retarget:     0.16s
  Step 4 - Init Visualization: 0.00s
  Step 5 - Process Frames:    2.97s
  Step 6 - Convert Arrays:    0.00s
  Step 7 - Forward Kinematics: 0.02s
  Step 8 - Save Data:         0.00s
Status: SUCCESS
==================================================

=== FILE SUCCESS - 2025-10-14 11:08:07 ===
File index: 007089
File number: 27/1001
Input file: /data/retarget/locomotion/raw/AMASS_SMPLXG/CMU/79/79_55_stageii.npz
Output file: ../robot/ik_based/pkl/007089.pkl
Processing time: 4.70 seconds
Total file time: 4.86 seconds
Status: SUCCESS
==================================================

=== SUCCESS LOG - 2025-10-14 11:08:13 ===
Input file: /data/retarget/locomotion/raw/AMASS_SMPLXG/CMU/79/79_56_stageii.npz
Output file: ../robot/ik_based/pkl/007090.pkl
Robot type: unitree_g1
Processing time: 5.77 seconds

STEP-BY-STEP TIMING:
  Step 1 - Load SMPLX:        0.90s
  Step 2 - Align FPS:         0.94s
  Step 3 - Init Retarget:     0.16s
  Step 4 - Init Visualization: 0.00s
  Step 5 - Process Frames:    3.73s
  Step 6 - Convert Arrays:    0.00s
  Step 7 - Forward Kinematics: 0.02s
  Step 8 - Save Data:         0.00s
Status: SUCCESS
==================================================

=== FILE SUCCESS - 2025-10-14 11:08:13 ===
File index: 007090
File number: 28/1001
Input file: /data/retarget/locomotion/raw/AMASS_SMPLXG/CMU/79/79_56_stageii.npz
Output file: ../robot/ik_based/pkl/007090.pkl
Processing time: 5.77 seconds
Total file time: 5.96 seconds
Status: SUCCESS
==================================================

=== SUCCESS LOG - 2025-10-14 11:08:19 ===
Input file: /data/retarget/locomotion/raw/AMASS_SMPLXG/CMU/79/79_57_stageii.npz
Output file: ../robot/ik_based/pkl/007091.pkl
Robot type: unitree_g1
Processing time: 6.42 seconds

STEP-BY-STEP TIMING:
  Step 1 - Load SMPLX:        0.93s
  Step 2 - Align FPS:         1.02s
  Step 3 - Init Retarget:     0.16s
  Step 4 - Init Visualization: 0.00s
  Step 5 - Process Frames:    4.27s
  Step 6 - Convert Arrays:    0.00s
  Step 7 - Forward Kinematics: 0.02s
  Step 8 - Save Data:         0.00s
Status: SUCCESS
==================================================

=== FILE SUCCESS - 2025-10-14 11:08:20 ===
File index: 007091
File number: 29/1001
Input file: /data/retarget/locomotion/raw/AMASS_SMPLXG/CMU/79/79_57_stageii.npz
Output file: ../robot/ik_based/pkl/007091.pkl
Processing time: 6.42 seconds
Total file time: 6.62 seconds
Status: SUCCESS
==================================================

=== SUCCESS LOG - 2025-10-14 11:08:27 ===
Input file: /data/retarget/locomotion/raw/AMASS_SMPLXG/CMU/79/79_58_stageii.npz
Output file: ../robot/ik_based/pkl/007092.pkl
Robot type: unitree_g1
Processing time: 7.22 seconds

STEP-BY-STEP TIMING:
  Step 1 - Load SMPLX:        0.89s
  Step 2 - Align FPS:         0.91s
  Step 3 - Init Retarget:     0.17s
  Step 4 - Init Visualization: 0.00s
  Step 5 - Process Frames:    5.21s
  Step 6 - Convert Arrays:    0.00s
  Step 7 - Forward Kinematics: 0.02s
  Step 8 - Save Data:         0.00s
Status: SUCCESS
==================================================

=== FILE SUCCESS - 2025-10-14 11:08:27 ===
File index: 007092
File number: 30/1001
Input file: /data/retarget/locomotion/raw/AMASS_SMPLXG/CMU/79/79_58_stageii.npz
Output file: ../robot/ik_based/pkl/007092.pkl
Processing time: 7.22 seconds
Total file time: 7.41 seconds
Status: SUCCESS
==================================================

=== SUCCESS LOG - 2025-10-14 11:08:33 ===
Input file: /data/retarget/locomotion/raw/AMASS_SMPLXG/CMU/79/79_59_stageii.npz
Output file: ../robot/ik_based/pkl/007093.pkl
Robot type: unitree_g1
Processing time: 5.81 seconds

STEP-BY-STEP TIMING:
  Step 1 - Load SMPLX:        0.90s
  Step 2 - Align FPS:         0.91s
  Step 3 - Init Retarget:     0.16s
  Step 4 - Init Visualization: 0.00s
  Step 5 - Process Frames:    3.79s
  Step 6 - Convert Arrays:    0.00s
  Step 7 - Forward Kinematics: 0.02s
  Step 8 - Save Data:         0.00s
Status: SUCCESS
==================================================

=== FILE SUCCESS - 2025-10-14 11:08:33 ===
File index: 007093
File number: 31/1001
Input file: /data/retarget/locomotion/raw/AMASS_SMPLXG/CMU/79/79_59_stageii.npz
Output file: ../robot/ik_based/pkl/007093.pkl
Processing time: 5.81 seconds
Total file time: 6.00 seconds
Status: SUCCESS
==================================================

=== SUCCESS LOG - 2025-10-14 11:08:38 ===
Input file: /data/retarget/locomotion/raw/AMASS_SMPLXG/CMU/79/79_60_stageii.npz
Output file: ../robot/ik_based/pkl/007094.pkl
Robot type: unitree_g1
Processing time: 5.32 seconds

STEP-BY-STEP TIMING:
  Step 1 - Load SMPLX:        0.87s
  Step 2 - Align FPS:         0.86s
  Step 3 - Init Retarget:     0.17s
  Step 4 - Init Visualization: 0.00s
  Step 5 - Process Frames:    3.39s
  Step 6 - Convert Arrays:    0.00s
  Step 7 - Forward Kinematics: 0.02s
  Step 8 - Save Data:         0.00s
Status: SUCCESS
==================================================

=== FILE SUCCESS - 2025-10-14 11:08:39 ===
File index: 007094
File number: 32/1001
Input file: /data/retarget/locomotion/raw/AMASS_SMPLXG/CMU/79/79_60_stageii.npz
Output file: ../robot/ik_based/pkl/007094.pkl
Processing time: 5.32 seconds
Total file time: 5.50 seconds
Status: SUCCESS
==================================================

=== SUCCESS LOG - 2025-10-14 11:08:45 ===
Input file: /data/retarget/locomotion/raw/AMASS_SMPLXG/CMU/79/79_61_stageii.npz
Output file: ../robot/ik_based/pkl/007095.pkl
Robot type: unitree_g1
Processing time: 6.80 seconds

STEP-BY-STEP TIMING:
  Step 1 - Load SMPLX:        0.95s
  Step 2 - Align FPS:         1.15s
  Step 3 - Init Retarget:     0.21s
  Step 4 - Init Visualization: 0.00s
  Step 5 - Process Frames:    4.45s
  Step 6 - Convert Arrays:    0.00s
  Step 7 - Forward Kinematics: 0.02s
  Step 8 - Save Data:         0.00s
Status: SUCCESS
==================================================

=== FILE SUCCESS - 2025-10-14 11:08:46 ===
File index: 007095
File number: 33/1001
Input file: /data/retarget/locomotion/raw/AMASS_SMPLXG/CMU/79/79_61_stageii.npz
Output file: ../robot/ik_based/pkl/007095.pkl
Processing time: 6.80 seconds
Total file time: 7.02 seconds
Status: SUCCESS
==================================================

=== SUCCESS LOG - 2025-10-14 11:08:51 ===
Input file: /data/retarget/locomotion/raw/AMASS_SMPLXG/CMU/79/79_62_stageii.npz
Output file: ../robot/ik_based/pkl/007096.pkl
Robot type: unitree_g1
Processing time: 5.62 seconds

STEP-BY-STEP TIMING:
  Step 1 - Load SMPLX:        0.89s
  Step 2 - Align FPS:         0.91s
  Step 3 - Init Retarget:     0.18s
  Step 4 - Init Visualization: 0.00s
  Step 5 - Process Frames:    3.60s
  Step 6 - Convert Arrays:    0.00s
  Step 7 - Forward Kinematics: 0.02s
  Step 8 - Save Data:         0.00s
Status: SUCCESS
==================================================

=== FILE SUCCESS - 2025-10-14 11:08:51 ===
File index: 007096
File number: 34/1001
Input file: /data/retarget/locomotion/raw/AMASS_SMPLXG/CMU/79/79_62_stageii.npz
Output file: ../robot/ik_based/pkl/007096.pkl
Processing time: 5.62 seconds
Total file time: 5.81 seconds
Status: SUCCESS
==================================================

=== SUCCESS LOG - 2025-10-14 11:08:58 ===
Input file: /data/retarget/locomotion/raw/AMASS_SMPLXG/CMU/79/79_63_stageii.npz
Output file: ../robot/ik_based/pkl/007097.pkl
Robot type: unitree_g1
Processing time: 6.89 seconds

STEP-BY-STEP TIMING:
  Step 1 - Load SMPLX:        0.95s
  Step 2 - Align FPS:         1.16s
  Step 3 - Init Retarget:     0.16s
  Step 4 - Init Visualization: 0.00s
  Step 5 - Process Frames:    4.59s
  Step 6 - Convert Arrays:    0.00s
  Step 7 - Forward Kinematics: 0.02s
  Step 8 - Save Data:         0.00s
Status: SUCCESS
==================================================

=== FILE SUCCESS - 2025-10-14 11:08:59 ===
File index: 007097
File number: 35/1001
Input file: /data/retarget/locomotion/raw/AMASS_SMPLXG/CMU/79/79_63_stageii.npz
Output file: ../robot/ik_based/pkl/007097.pkl
Processing time: 6.89 seconds
Total file time: 7.14 seconds
Status: SUCCESS
==================================================

=== SUCCESS LOG - 2025-10-14 11:09:05 ===
Input file: /data/retarget/locomotion/raw/AMASS_SMPLXG/CMU/79/79_64_stageii.npz
Output file: ../robot/ik_based/pkl/007098.pkl
Robot type: unitree_g1
Processing time: 6.77 seconds

STEP-BY-STEP TIMING:
  Step 1 - Load SMPLX:        0.95s
  Step 2 - Align FPS:         1.14s
  Step 3 - Init Retarget:     0.24s
  Step 4 - Init Visualization: 0.00s
  Step 5 - Process Frames:    4.40s
  Step 6 - Convert Arrays:    0.00s
  Step 7 - Forward Kinematics: 0.02s
  Step 8 - Save Data:         0.00s
Status: SUCCESS
==================================================

=== FILE SUCCESS - 2025-10-14 11:09:06 ===
File index: 007098
File number: 36/1001
Input file: /data/retarget/locomotion/raw/AMASS_SMPLXG/CMU/79/79_64_stageii.npz
Output file: ../robot/ik_based/pkl/007098.pkl
Processing time: 6.77 seconds
Total file time: 6.99 seconds
Status: SUCCESS
==================================================

=== SUCCESS LOG - 2025-10-14 11:09:10 ===
Input file: /data/retarget/locomotion/raw/AMASS_SMPLXG/CMU/79/79_65_stageii.npz
Output file: ../robot/ik_based/pkl/007099.pkl
Robot type: unitree_g1
Processing time: 4.77 seconds

STEP-BY-STEP TIMING:
  Step 1 - Load SMPLX:        0.84s
  Step 2 - Align FPS:         0.70s
  Step 3 - Init Retarget:     0.18s
  Step 4 - Init Visualization: 0.00s
  Step 5 - Process Frames:    3.01s
  Step 6 - Convert Arrays:    0.00s
  Step 7 - Forward Kinematics: 0.02s
  Step 8 - Save Data:         0.00s
Status: SUCCESS
==================================================

=== FILE SUCCESS - 2025-10-14 11:09:10 ===
File index: 007099
File number: 37/1001
Input file: /data/retarget/locomotion/raw/AMASS_SMPLXG/CMU/79/79_65_stageii.npz
Output file: ../robot/ik_based/pkl/007099.pkl
Processing time: 4.77 seconds
Total file time: 4.93 seconds
Status: SUCCESS
==================================================

=== SUCCESS LOG - 2025-10-14 11:09:16 ===
Input file: /data/retarget/locomotion/raw/AMASS_SMPLXG/CMU/79/79_66_stageii.npz
Output file: ../robot/ik_based/pkl/007100.pkl
Robot type: unitree_g1
Processing time: 5.93 seconds

STEP-BY-STEP TIMING:
  Step 1 - Load SMPLX:        0.85s
  Step 2 - Align FPS:         0.79s
  Step 3 - Init Retarget:     0.16s
  Step 4 - Init Visualization: 0.00s
  Step 5 - Process Frames:    4.09s
  Step 6 - Convert Arrays:    0.00s
  Step 7 - Forward Kinematics: 0.02s
  Step 8 - Save Data:         0.00s
Status: SUCCESS
==================================================

=== FILE SUCCESS - 2025-10-14 11:09:17 ===
File index: 007100
File number: 38/1001
Input file: /data/retarget/locomotion/raw/AMASS_SMPLXG/CMU/79/79_66_stageii.npz
Output file: ../robot/ik_based/pkl/007100.pkl
Processing time: 5.93 seconds
Total file time: 6.10 seconds
Status: SUCCESS
==================================================

=== SUCCESS LOG - 2025-10-14 11:09:25 ===
Input file: /data/retarget/locomotion/raw/AMASS_SMPLXG/CMU/79/79_67_stageii.npz
Output file: ../robot/ik_based/pkl/007101.pkl
Robot type: unitree_g1
Processing time: 8.42 seconds

STEP-BY-STEP TIMING:
  Step 1 - Load SMPLX:        1.02s
  Step 2 - Align FPS:         1.31s
  Step 3 - Init Retarget:     0.16s
  Step 4 - Init Visualization: 0.00s
  Step 5 - Process Frames:    5.89s
  Step 6 - Convert Arrays:    0.00s
  Step 7 - Forward Kinematics: 0.02s
  Step 8 - Save Data:         0.00s
Status: SUCCESS
==================================================

=== FILE SUCCESS - 2025-10-14 11:09:25 ===
File index: 007101
File number: 39/1001
Input file: /data/retarget/locomotion/raw/AMASS_SMPLXG/CMU/79/79_67_stageii.npz
Output file: ../robot/ik_based/pkl/007101.pkl
Processing time: 8.42 seconds
Total file time: 8.67 seconds
Status: SUCCESS
==================================================

=== SUCCESS LOG - 2025-10-14 11:09:33 ===
Input file: /data/retarget/locomotion/raw/AMASS_SMPLXG/CMU/79/79_68_stageii.npz
Output file: ../robot/ik_based/pkl/007102.pkl
Robot type: unitree_g1
Processing time: 7.32 seconds

STEP-BY-STEP TIMING:
  Step 1 - Load SMPLX:        0.97s
  Step 2 - Align FPS:         1.24s
  Step 3 - Init Retarget:     0.16s
  Step 4 - Init Visualization: 0.00s
  Step 5 - Process Frames:    4.91s
  Step 6 - Convert Arrays:    0.00s
  Step 7 - Forward Kinematics: 0.02s
  Step 8 - Save Data:         0.00s
Status: SUCCESS
==================================================

=== FILE SUCCESS - 2025-10-14 11:09:33 ===
File index: 007102
File number: 40/1001
Input file: /data/retarget/locomotion/raw/AMASS_SMPLXG/CMU/79/79_68_stageii.npz
Output file: ../robot/ik_based/pkl/007102.pkl
Processing time: 7.32 seconds
Total file time: 7.55 seconds
Status: SUCCESS
==================================================

=== SUCCESS LOG - 2025-10-14 11:09:39 ===
Input file: /data/retarget/locomotion/raw/AMASS_SMPLXG/CMU/79/79_69_stageii.npz
Output file: ../robot/ik_based/pkl/007103.pkl
Robot type: unitree_g1
Processing time: 6.62 seconds

STEP-BY-STEP TIMING:
  Step 1 - Load SMPLX:        0.87s
  Step 2 - Align FPS:         0.87s
  Step 3 - Init Retarget:     0.16s
  Step 4 - Init Visualization: 0.00s
  Step 5 - Process Frames:    4.69s
  Step 6 - Convert Arrays:    0.00s
  Step 7 - Forward Kinematics: 0.02s
  Step 8 - Save Data:         0.00s
Status: SUCCESS
==================================================

=== FILE SUCCESS - 2025-10-14 11:09:40 ===
File index: 007103
File number: 41/1001
Input file: /data/retarget/locomotion/raw/AMASS_SMPLXG/CMU/79/79_69_stageii.npz
Output file: ../robot/ik_based/pkl/007103.pkl
Processing time: 6.62 seconds
Total file time: 6.81 seconds
Status: SUCCESS
==================================================

=== SUCCESS LOG - 2025-10-14 11:09:45 ===
Input file: /data/retarget/locomotion/raw/AMASS_SMPLXG/CMU/79/79_70_stageii.npz
Output file: ../robot/ik_based/pkl/007104.pkl
Robot type: unitree_g1
Processing time: 5.86 seconds

STEP-BY-STEP TIMING:
  Step 1 - Load SMPLX:        0.87s
  Step 2 - Align FPS:         0.81s
  Step 3 - Init Retarget:     0.16s
  Step 4 - Init Visualization: 0.00s
  Step 5 - Process Frames:    3.99s
  Step 6 - Convert Arrays:    0.00s
  Step 7 - Forward Kinematics: 0.02s
  Step 8 - Save Data:         0.00s
Status: SUCCESS
==================================================

=== FILE SUCCESS - 2025-10-14 11:09:46 ===
File index: 007104
File number: 42/1001
Input file: /data/retarget/locomotion/raw/AMASS_SMPLXG/CMU/79/79_70_stageii.npz
Output file: ../robot/ik_based/pkl/007104.pkl
Processing time: 5.86 seconds
Total file time: 6.04 seconds
Status: SUCCESS
==================================================

=== SUCCESS LOG - 2025-10-14 11:09:52 ===
Input file: /data/retarget/locomotion/raw/AMASS_SMPLXG/CMU/79/79_71_stageii.npz
Output file: ../robot/ik_based/pkl/007105.pkl
Robot type: unitree_g1
Processing time: 6.62 seconds

STEP-BY-STEP TIMING:
  Step 1 - Load SMPLX:        0.94s
  Step 2 - Align FPS:         1.12s
  Step 3 - Init Retarget:     0.16s
  Step 4 - Init Visualization: 0.00s
  Step 5 - Process Frames:    4.35s
  Step 6 - Convert Arrays:    0.00s
  Step 7 - Forward Kinematics: 0.02s
  Step 8 - Save Data:         0.00s
Status: SUCCESS
==================================================

=== FILE SUCCESS - 2025-10-14 11:09:52 ===
File index: 007105
File number: 43/1001
Input file: /data/retarget/locomotion/raw/AMASS_SMPLXG/CMU/79/79_71_stageii.npz
Output file: ../robot/ik_based/pkl/007105.pkl
Processing time: 6.62 seconds
Total file time: 6.84 seconds
Status: SUCCESS
==================================================

=== SUCCESS LOG - 2025-10-14 11:09:59 ===
Input file: /data/retarget/locomotion/raw/AMASS_SMPLXG/CMU/79/79_72_stageii.npz
Output file: ../robot/ik_based/pkl/007106.pkl
Robot type: unitree_g1
Processing time: 6.13 seconds

STEP-BY-STEP TIMING:
  Step 1 - Load SMPLX:        0.91s
  Step 2 - Align FPS:         1.00s
  Step 3 - Init Retarget:     0.16s
  Step 4 - Init Visualization: 0.00s
  Step 5 - Process Frames:    4.02s
  Step 6 - Convert Arrays:    0.00s
  Step 7 - Forward Kinematics: 0.02s
  Step 8 - Save Data:         0.00s
Status: SUCCESS
==================================================

=== FILE SUCCESS - 2025-10-14 11:09:59 ===
File index: 007106
File number: 44/1001
Input file: /data/retarget/locomotion/raw/AMASS_SMPLXG/CMU/79/79_72_stageii.npz
Output file: ../robot/ik_based/pkl/007106.pkl
Processing time: 6.13 seconds
Total file time: 6.33 seconds
Status: SUCCESS
==================================================

=== SUCCESS LOG - 2025-10-14 11:10:04 ===
Input file: /data/retarget/locomotion/raw/AMASS_SMPLXG/CMU/79/79_73_stageii.npz
Output file: ../robot/ik_based/pkl/007107.pkl
Robot type: unitree_g1
Processing time: 5.68 seconds

STEP-BY-STEP TIMING:
  Step 1 - Load SMPLX:        0.89s
  Step 2 - Align FPS:         0.93s
  Step 3 - Init Retarget:     0.16s
  Step 4 - Init Visualization: 0.00s
  Step 5 - Process Frames:    3.66s
  Step 6 - Convert Arrays:    0.00s
  Step 7 - Forward Kinematics: 0.02s
  Step 8 - Save Data:         0.00s
Status: SUCCESS
==================================================

=== FILE SUCCESS - 2025-10-14 11:10:05 ===
File index: 007107
File number: 45/1001
Input file: /data/retarget/locomotion/raw/AMASS_SMPLXG/CMU/79/79_73_stageii.npz
Output file: ../robot/ik_based/pkl/007107.pkl
Processing time: 5.68 seconds
Total file time: 5.88 seconds
Status: SUCCESS
==================================================

=== SUCCESS LOG - 2025-10-14 11:10:11 ===
Input file: /data/retarget/locomotion/raw/AMASS_SMPLXG/CMU/79/79_74_stageii.npz
Output file: ../robot/ik_based/pkl/007108.pkl
Robot type: unitree_g1
Processing time: 6.66 seconds

STEP-BY-STEP TIMING:
  Step 1 - Load SMPLX:        0.90s
  Step 2 - Align FPS:         0.97s
  Step 3 - Init Retarget:     0.17s
  Step 4 - Init Visualization: 0.00s
  Step 5 - Process Frames:    4.58s
  Step 6 - Convert Arrays:    0.00s
  Step 7 - Forward Kinematics: 0.02s
  Step 8 - Save Data:         0.00s
Status: SUCCESS
==================================================

=== FILE SUCCESS - 2025-10-14 11:10:12 ===
File index: 007108
File number: 46/1001
Input file: /data/retarget/locomotion/raw/AMASS_SMPLXG/CMU/79/79_74_stageii.npz
Output file: ../robot/ik_based/pkl/007108.pkl
Processing time: 6.66 seconds
Total file time: 6.86 seconds
Status: SUCCESS
==================================================

=== SUCCESS LOG - 2025-10-14 11:10:20 ===
Input file: /data/retarget/locomotion/raw/AMASS_SMPLXG/CMU/79/79_75_stageii.npz
Output file: ../robot/ik_based/pkl/007109.pkl
Robot type: unitree_g1
Processing time: 8.15 seconds

STEP-BY-STEP TIMING:
  Step 1 - Load SMPLX:        1.00s
  Step 2 - Align FPS:         1.37s
  Step 3 - Init Retarget:     0.19s
  Step 4 - Init Visualization: 0.00s
  Step 5 - Process Frames:    5.54s
  Step 6 - Convert Arrays:    0.00s
  Step 7 - Forward Kinematics: 0.02s
  Step 8 - Save Data:         0.00s
Status: SUCCESS
==================================================

=== FILE SUCCESS - 2025-10-14 11:10:20 ===
File index: 007109
File number: 47/1001
Input file: /data/retarget/locomotion/raw/AMASS_SMPLXG/CMU/79/79_75_stageii.npz
Output file: ../robot/ik_based/pkl/007109.pkl
Processing time: 8.15 seconds
Total file time: 8.40 seconds
Status: SUCCESS
==================================================

=== SUCCESS LOG - 2025-10-14 11:10:28 ===
Input file: /data/retarget/locomotion/raw/AMASS_SMPLXG/CMU/79/79_76_stageii.npz
Output file: ../robot/ik_based/pkl/007110.pkl
Robot type: unitree_g1
Processing time: 8.12 seconds

STEP-BY-STEP TIMING:
  Step 1 - Load SMPLX:        1.02s
  Step 2 - Align FPS:         1.33s
  Step 3 - Init Retarget:     0.18s
  Step 4 - Init Visualization: 0.00s
  Step 5 - Process Frames:    5.56s
  Step 6 - Convert Arrays:    0.00s
  Step 7 - Forward Kinematics: 0.02s
  Step 8 - Save Data:         0.00s
Status: SUCCESS
==================================================

=== FILE SUCCESS - 2025-10-14 11:10:28 ===
File index: 007110
File number: 48/1001
Input file: /data/retarget/locomotion/raw/AMASS_SMPLXG/CMU/79/79_76_stageii.npz
Output file: ../robot/ik_based/pkl/007110.pkl
Processing time: 8.12 seconds
Total file time: 8.37 seconds
Status: SUCCESS
==================================================

=== SUCCESS LOG - 2025-10-14 11:10:36 ===
Input file: /data/retarget/locomotion/raw/AMASS_SMPLXG/CMU/79/79_77_stageii.npz
Output file: ../robot/ik_based/pkl/007111.pkl
Robot type: unitree_g1
Processing time: 7.52 seconds

STEP-BY-STEP TIMING:
  Step 1 - Load SMPLX:        0.99s
  Step 2 - Align FPS:         1.20s
  Step 3 - Init Retarget:     0.20s
  Step 4 - Init Visualization: 0.00s
  Step 5 - Process Frames:    5.08s
  Step 6 - Convert Arrays:    0.00s
  Step 7 - Forward Kinematics: 0.02s
  Step 8 - Save Data:         0.00s
Status: SUCCESS
==================================================

=== FILE SUCCESS - 2025-10-14 11:10:36 ===
File index: 007111
File number: 49/1001
Input file: /data/retarget/locomotion/raw/AMASS_SMPLXG/CMU/79/79_77_stageii.npz
Output file: ../robot/ik_based/pkl/007111.pkl
Processing time: 7.52 seconds
Total file time: 7.75 seconds
Status: SUCCESS
==================================================

=== SUCCESS LOG - 2025-10-14 11:10:44 ===
Input file: /data/retarget/locomotion/raw/AMASS_SMPLXG/CMU/79/79_78_stageii.npz
Output file: ../robot/ik_based/pkl/007112.pkl
Robot type: unitree_g1
Processing time: 8.05 seconds

STEP-BY-STEP TIMING:
  Step 1 - Load SMPLX:        1.00s
  Step 2 - Align FPS:         1.35s
  Step 3 - Init Retarget:     0.16s
  Step 4 - Init Visualization: 0.00s
  Step 5 - Process Frames:    5.51s
  Step 6 - Convert Arrays:    0.00s
  Step 7 - Forward Kinematics: 0.02s
  Step 8 - Save Data:         0.00s
Status: SUCCESS
==================================================

=== FILE SUCCESS - 2025-10-14 11:10:44 ===
File index: 007112
File number: 50/1001
Input file: /data/retarget/locomotion/raw/AMASS_SMPLXG/CMU/79/79_78_stageii.npz
Output file: ../robot/ik_based/pkl/007112.pkl
Processing time: 8.05 seconds
Total file time: 8.33 seconds
Status: SUCCESS
==================================================

=== SUCCESS LOG - 2025-10-14 11:10:50 ===
Input file: /data/retarget/locomotion/raw/AMASS_SMPLXG/CMU/79/79_79_stageii.npz
Output file: ../robot/ik_based/pkl/007113.pkl
Robot type: unitree_g1
Processing time: 5.79 seconds

STEP-BY-STEP TIMING:
  Step 1 - Load SMPLX:        0.89s
  Step 2 - Align FPS:         0.89s
  Step 3 - Init Retarget:     0.24s
  Step 4 - Init Visualization: 0.00s
  Step 5 - Process Frames:    3.73s
  Step 6 - Convert Arrays:    0.00s
  Step 7 - Forward Kinematics: 0.02s
  Step 8 - Save Data:         0.00s
Status: SUCCESS
==================================================

=== FILE SUCCESS - 2025-10-14 11:10:50 ===
File index: 007113
File number: 51/1001
Input file: /data/retarget/locomotion/raw/AMASS_SMPLXG/CMU/79/79_79_stageii.npz
Output file: ../robot/ik_based/pkl/007113.pkl
Processing time: 5.79 seconds
Total file time: 5.98 seconds
Status: SUCCESS
==================================================

=== SUCCESS LOG - 2025-10-14 11:10:57 ===
Input file: /data/retarget/locomotion/raw/AMASS_SMPLXG/CMU/79/79_80_stageii.npz
Output file: ../robot/ik_based/pkl/007114.pkl
Robot type: unitree_g1
Processing time: 6.25 seconds

STEP-BY-STEP TIMING:
  Step 1 - Load SMPLX:        0.93s
  Step 2 - Align FPS:         1.03s
  Step 3 - Init Retarget:     0.17s
  Step 4 - Init Visualization: 0.00s
  Step 5 - Process Frames:    4.08s
  Step 6 - Convert Arrays:    0.00s
  Step 7 - Forward Kinematics: 0.02s
  Step 8 - Save Data:         0.00s
Status: SUCCESS
==================================================

=== FILE SUCCESS - 2025-10-14 11:10:57 ===
File index: 007114
File number: 52/1001
Input file: /data/retarget/locomotion/raw/AMASS_SMPLXG/CMU/79/79_80_stageii.npz
Output file: ../robot/ik_based/pkl/007114.pkl
Processing time: 6.25 seconds
Total file time: 6.46 seconds
Status: SUCCESS
==================================================

=== SUCCESS LOG - 2025-10-14 11:11:03 ===
Input file: /data/retarget/locomotion/raw/AMASS_SMPLXG/CMU/79/79_81_stageii.npz
Output file: ../robot/ik_based/pkl/007115.pkl
Robot type: unitree_g1
Processing time: 6.19 seconds

STEP-BY-STEP TIMING:
  Step 1 - Load SMPLX:        0.90s
  Step 2 - Align FPS:         0.98s
  Step 3 - Init Retarget:     0.18s
  Step 4 - Init Visualization: 0.00s
  Step 5 - Process Frames:    4.08s
  Step 6 - Convert Arrays:    0.00s
  Step 7 - Forward Kinematics: 0.02s
  Step 8 - Save Data:         0.00s
Status: SUCCESS
==================================================

=== FILE SUCCESS - 2025-10-14 11:11:03 ===
File index: 007115
File number: 53/1001
Input file: /data/retarget/locomotion/raw/AMASS_SMPLXG/CMU/79/79_81_stageii.npz
Output file: ../robot/ik_based/pkl/007115.pkl
Processing time: 6.19 seconds
Total file time: 6.39 seconds
Status: SUCCESS
==================================================

=== SUCCESS LOG - 2025-10-14 11:11:09 ===
Input file: /data/retarget/locomotion/raw/AMASS_SMPLXG/CMU/79/79_82_stageii.npz
Output file: ../robot/ik_based/pkl/007116.pkl
Robot type: unitree_g1
Processing time: 5.69 seconds

STEP-BY-STEP TIMING:
  Step 1 - Load SMPLX:        0.88s
  Step 2 - Align FPS:         0.82s
  Step 3 - Init Retarget:     0.18s
  Step 4 - Init Visualization: 0.00s
  Step 5 - Process Frames:    3.77s
  Step 6 - Convert Arrays:    0.00s
  Step 7 - Forward Kinematics: 0.02s
  Step 8 - Save Data:         0.00s
Status: SUCCESS
==================================================

=== FILE SUCCESS - 2025-10-14 11:11:09 ===
File index: 007116
File number: 54/1001
Input file: /data/retarget/locomotion/raw/AMASS_SMPLXG/CMU/79/79_82_stageii.npz
Output file: ../robot/ik_based/pkl/007116.pkl
Processing time: 5.69 seconds
Total file time: 5.86 seconds
Status: SUCCESS
==================================================

=== SUCCESS LOG - 2025-10-14 11:11:16 ===
Input file: /data/retarget/locomotion/raw/AMASS_SMPLXG/CMU/79/79_83_stageii.npz
Output file: ../robot/ik_based/pkl/007117.pkl
Robot type: unitree_g1
Processing time: 7.38 seconds

STEP-BY-STEP TIMING:
  Step 1 - Load SMPLX:        0.97s
  Step 2 - Align FPS:         1.23s
  Step 3 - Init Retarget:     0.16s
  Step 4 - Init Visualization: 0.00s
  Step 5 - Process Frames:    4.97s
  Step 6 - Convert Arrays:    0.00s
  Step 7 - Forward Kinematics: 0.02s
  Step 8 - Save Data:         0.00s
Status: SUCCESS
==================================================

=== FILE SUCCESS - 2025-10-14 11:11:17 ===
File index: 007117
File number: 55/1001
Input file: /data/retarget/locomotion/raw/AMASS_SMPLXG/CMU/79/79_83_stageii.npz
Output file: ../robot/ik_based/pkl/007117.pkl
Processing time: 7.38 seconds
Total file time: 7.62 seconds
Status: SUCCESS
==================================================

=== SUCCESS LOG - 2025-10-14 11:11:24 ===
Input file: /data/retarget/locomotion/raw/AMASS_SMPLXG/CMU/79/79_84_stageii.npz
Output file: ../robot/ik_based/pkl/007118.pkl
Robot type: unitree_g1
Processing time: 6.92 seconds

STEP-BY-STEP TIMING:
  Step 1 - Load SMPLX:        0.91s
  Step 2 - Align FPS:         0.94s
  Step 3 - Init Retarget:     0.16s
  Step 4 - Init Visualization: 0.00s
  Step 5 - Process Frames:    4.87s
  Step 6 - Convert Arrays:    0.00s
  Step 7 - Forward Kinematics: 0.02s
  Step 8 - Save Data:         0.00s
Status: SUCCESS
==================================================

=== FILE SUCCESS - 2025-10-14 11:11:24 ===
File index: 007118
File number: 56/1001
Input file: /data/retarget/locomotion/raw/AMASS_SMPLXG/CMU/79/79_84_stageii.npz
Output file: ../robot/ik_based/pkl/007118.pkl
Processing time: 6.92 seconds
Total file time: 7.12 seconds
Status: SUCCESS
==================================================

=== SUCCESS LOG - 2025-10-14 11:11:31 ===
Input file: /data/retarget/locomotion/raw/AMASS_SMPLXG/CMU/79/79_85_stageii.npz
Output file: ../robot/ik_based/pkl/007119.pkl
Robot type: unitree_g1
Processing time: 6.83 seconds

STEP-BY-STEP TIMING:
  Step 1 - Load SMPLX:        0.93s
  Step 2 - Align FPS:         1.10s
  Step 3 - Init Retarget:     0.19s
  Step 4 - Init Visualization: 0.00s
  Step 5 - Process Frames:    4.57s
  Step 6 - Convert Arrays:    0.00s
  Step 7 - Forward Kinematics: 0.02s
  Step 8 - Save Data:         0.00s
Status: SUCCESS
==================================================

=== FILE SUCCESS - 2025-10-14 11:11:31 ===
File index: 007119
File number: 57/1001
Input file: /data/retarget/locomotion/raw/AMASS_SMPLXG/CMU/79/79_85_stageii.npz
Output file: ../robot/ik_based/pkl/007119.pkl
Processing time: 6.83 seconds
Total file time: 7.04 seconds
Status: SUCCESS
==================================================

=== SUCCESS LOG - 2025-10-14 11:11:36 ===
Input file: /data/retarget/locomotion/raw/AMASS_SMPLXG/CMU/79/79_86_stageii.npz
Output file: ../robot/ik_based/pkl/007120.pkl
Robot type: unitree_g1
Processing time: 5.09 seconds

STEP-BY-STEP TIMING:
  Step 1 - Load SMPLX:        0.83s
  Step 2 - Align FPS:         0.73s
  Step 3 - Init Retarget:     0.16s
  Step 4 - Init Visualization: 0.00s
  Step 5 - Process Frames:    3.32s
  Step 6 - Convert Arrays:    0.00s
  Step 7 - Forward Kinematics: 0.02s
  Step 8 - Save Data:         0.00s
Status: SUCCESS
==================================================

=== FILE SUCCESS - 2025-10-14 11:11:36 ===
File index: 007120
File number: 58/1001
Input file: /data/retarget/locomotion/raw/AMASS_SMPLXG/CMU/79/79_86_stageii.npz
Output file: ../robot/ik_based/pkl/007120.pkl
Processing time: 5.09 seconds
Total file time: 5.25 seconds
Status: SUCCESS
==================================================

=== SUCCESS LOG - 2025-10-14 11:11:42 ===
Input file: /data/retarget/locomotion/raw/AMASS_SMPLXG/CMU/79/79_87_stageii.npz
Output file: ../robot/ik_based/pkl/007121.pkl
Robot type: unitree_g1
Processing time: 5.67 seconds

STEP-BY-STEP TIMING:
  Step 1 - Load SMPLX:        0.86s
  Step 2 - Align FPS:         0.84s
  Step 3 - Init Retarget:     0.16s
  Step 4 - Init Visualization: 0.00s
  Step 5 - Process Frames:    3.78s
  Step 6 - Convert Arrays:    0.00s
  Step 7 - Forward Kinematics: 0.02s
  Step 8 - Save Data:         0.00s
Status: SUCCESS
==================================================

=== FILE SUCCESS - 2025-10-14 11:11:42 ===
File index: 007121
File number: 59/1001
Input file: /data/retarget/locomotion/raw/AMASS_SMPLXG/CMU/79/79_87_stageii.npz
Output file: ../robot/ik_based/pkl/007121.pkl
Processing time: 5.67 seconds
Total file time: 5.85 seconds
Status: SUCCESS
==================================================

=== SUCCESS LOG - 2025-10-14 11:11:48 ===
Input file: /data/retarget/locomotion/raw/AMASS_SMPLXG/CMU/79/79_88_stageii.npz
Output file: ../robot/ik_based/pkl/007122.pkl
Robot type: unitree_g1
Processing time: 6.28 seconds

STEP-BY-STEP TIMING:
  Step 1 - Load SMPLX:        0.89s
  Step 2 - Align FPS:         0.96s
  Step 3 - Init Retarget:     0.16s
  Step 4 - Init Visualization: 0.00s
  Step 5 - Process Frames:    4.23s
  Step 6 - Convert Arrays:    0.00s
  Step 7 - Forward Kinematics: 0.02s
  Step 8 - Save Data:         0.00s
Status: SUCCESS
==================================================

=== FILE SUCCESS - 2025-10-14 11:11:48 ===
File index: 007122
File number: 60/1001
Input file: /data/retarget/locomotion/raw/AMASS_SMPLXG/CMU/79/79_88_stageii.npz
Output file: ../robot/ik_based/pkl/007122.pkl
Processing time: 6.28 seconds
Total file time: 6.47 seconds
Status: SUCCESS
==================================================

=== SUCCESS LOG - 2025-10-14 11:11:54 ===
Input file: /data/retarget/locomotion/raw/AMASS_SMPLXG/CMU/79/79_89_stageii.npz
Output file: ../robot/ik_based/pkl/007123.pkl
Robot type: unitree_g1
Processing time: 5.87 seconds

STEP-BY-STEP TIMING:
  Step 1 - Load SMPLX:        0.90s
  Step 2 - Align FPS:         0.94s
  Step 3 - Init Retarget:     0.16s
  Step 4 - Init Visualization: 0.00s
  Step 5 - Process Frames:    3.83s
  Step 6 - Convert Arrays:    0.00s
  Step 7 - Forward Kinematics: 0.02s
  Step 8 - Save Data:         0.00s
Status: SUCCESS
==================================================

=== FILE SUCCESS - 2025-10-14 11:11:55 ===
File index: 007123
File number: 61/1001
Input file: /data/retarget/locomotion/raw/AMASS_SMPLXG/CMU/79/79_89_stageii.npz
Output file: ../robot/ik_based/pkl/007123.pkl
Processing time: 5.87 seconds
Total file time: 6.06 seconds
Status: SUCCESS
==================================================

=== SUCCESS LOG - 2025-10-14 11:12:04 ===
Input file: /data/retarget/locomotion/raw/AMASS_SMPLXG/CMU/79/79_90_stageii.npz
Output file: ../robot/ik_based/pkl/007124.pkl
Robot type: unitree_g1
Processing time: 9.76 seconds

STEP-BY-STEP TIMING:
  Step 1 - Load SMPLX:        1.04s
  Step 2 - Align FPS:         1.41s
  Step 3 - Init Retarget:     0.16s
  Step 4 - Init Visualization: 0.00s
  Step 5 - Process Frames:    7.10s
  Step 6 - Convert Arrays:    0.00s
  Step 7 - Forward Kinematics: 0.02s
  Step 8 - Save Data:         0.00s
Status: SUCCESS
==================================================

=== FILE SUCCESS - 2025-10-14 11:12:05 ===
File index: 007124
File number: 62/1001
Input file: /data/retarget/locomotion/raw/AMASS_SMPLXG/CMU/79/79_90_stageii.npz
Output file: ../robot/ik_based/pkl/007124.pkl
Processing time: 9.76 seconds
Total file time: 10.02 seconds
Status: SUCCESS
==================================================

=== SUCCESS LOG - 2025-10-14 11:12:09 ===
Input file: /data/retarget/locomotion/raw/AMASS_SMPLXG/CMU/79/79_91_stageii.npz
Output file: ../robot/ik_based/pkl/007125.pkl
Robot type: unitree_g1
Processing time: 4.25 seconds

STEP-BY-STEP TIMING:
  Step 1 - Load SMPLX:        0.80s
  Step 2 - Align FPS:         0.55s
  Step 3 - Init Retarget:     0.16s
  Step 4 - Init Visualization: 0.00s
  Step 5 - Process Frames:    2.70s
  Step 6 - Convert Arrays:    0.00s
  Step 7 - Forward Kinematics: 0.02s
  Step 8 - Save Data:         0.00s
Status: SUCCESS
==================================================

=== FILE SUCCESS - 2025-10-14 11:12:09 ===
File index: 007125
File number: 63/1001
Input file: /data/retarget/locomotion/raw/AMASS_SMPLXG/CMU/79/79_91_stageii.npz
Output file: ../robot/ik_based/pkl/007125.pkl
Processing time: 4.25 seconds
Total file time: 4.39 seconds
Status: SUCCESS
==================================================

=== SUCCESS LOG - 2025-10-14 11:12:14 ===
Input file: /data/retarget/locomotion/raw/AMASS_SMPLXG/CMU/79/79_92_stageii.npz
Output file: ../robot/ik_based/pkl/007126.pkl
Robot type: unitree_g1
Processing time: 5.32 seconds

STEP-BY-STEP TIMING:
  Step 1 - Load SMPLX:        0.83s
  Step 2 - Align FPS:         0.70s
  Step 3 - Init Retarget:     0.16s
  Step 4 - Init Visualization: 0.00s
  Step 5 - Process Frames:    3.59s
  Step 6 - Convert Arrays:    0.00s
  Step 7 - Forward Kinematics: 0.02s
  Step 8 - Save Data:         0.00s
Status: SUCCESS
==================================================

=== FILE SUCCESS - 2025-10-14 11:12:14 ===
File index: 007126
File number: 64/1001
Input file: /data/retarget/locomotion/raw/AMASS_SMPLXG/CMU/79/79_92_stageii.npz
Output file: ../robot/ik_based/pkl/007126.pkl
Processing time: 5.32 seconds
Total file time: 5.48 seconds
Status: SUCCESS
==================================================

=== SUCCESS LOG - 2025-10-14 11:12:24 ===
Input file: /data/retarget/locomotion/raw/AMASS_SMPLXG/CMU/79/79_93_stageii.npz
Output file: ../robot/ik_based/pkl/007127.pkl
Robot type: unitree_g1
Processing time: 9.26 seconds

STEP-BY-STEP TIMING:
  Step 1 - Load SMPLX:        0.98s
  Step 2 - Align FPS:         1.20s
  Step 3 - Init Retarget:     0.21s
  Step 4 - Init Visualization: 0.00s
  Step 5 - Process Frames:    6.84s
  Step 6 - Convert Arrays:    0.00s
  Step 7 - Forward Kinematics: 0.02s
  Step 8 - Save Data:         0.00s
Status: SUCCESS
==================================================

=== FILE SUCCESS - 2025-10-14 11:12:24 ===
File index: 007127
File number: 65/1001
Input file: /data/retarget/locomotion/raw/AMASS_SMPLXG/CMU/79/79_93_stageii.npz
Output file: ../robot/ik_based/pkl/007127.pkl
Processing time: 9.26 seconds
Total file time: 9.49 seconds
Status: SUCCESS
==================================================

=== SUCCESS LOG - 2025-10-14 11:12:31 ===
Input file: /data/retarget/locomotion/raw/AMASS_SMPLXG/CMU/79/79_94_stageii.npz
Output file: ../robot/ik_based/pkl/007128.pkl
Robot type: unitree_g1
Processing time: 6.59 seconds

STEP-BY-STEP TIMING:
  Step 1 - Load SMPLX:        0.91s
  Step 2 - Align FPS:         0.98s
  Step 3 - Init Retarget:     0.19s
  Step 4 - Init Visualization: 0.00s
  Step 5 - Process Frames:    4.46s
  Step 6 - Convert Arrays:    0.00s
  Step 7 - Forward Kinematics: 0.02s
  Step 8 - Save Data:         0.00s
Status: SUCCESS
==================================================

=== FILE SUCCESS - 2025-10-14 11:12:31 ===
File index: 007128
File number: 66/1001
Input file: /data/retarget/locomotion/raw/AMASS_SMPLXG/CMU/79/79_94_stageii.npz
Output file: ../robot/ik_based/pkl/007128.pkl
Processing time: 6.59 seconds
Total file time: 6.79 seconds
Status: SUCCESS
==================================================

=== SUCCESS LOG - 2025-10-14 11:12:38 ===
Input file: /data/retarget/locomotion/raw/AMASS_SMPLXG/CMU/79/79_95_stageii.npz
Output file: ../robot/ik_based/pkl/007129.pkl
Robot type: unitree_g1
Processing time: 7.12 seconds

STEP-BY-STEP TIMING:
  Step 1 - Load SMPLX:        0.91s
  Step 2 - Align FPS:         1.00s
  Step 3 - Init Retarget:     0.18s
  Step 4 - Init Visualization: 0.00s
  Step 5 - Process Frames:    5.00s
  Step 6 - Convert Arrays:    0.00s
  Step 7 - Forward Kinematics: 0.02s
  Step 8 - Save Data:         0.00s
Status: SUCCESS
==================================================

=== FILE SUCCESS - 2025-10-14 11:12:38 ===
File index: 007129
File number: 67/1001
Input file: /data/retarget/locomotion/raw/AMASS_SMPLXG/CMU/79/79_95_stageii.npz
Output file: ../robot/ik_based/pkl/007129.pkl
Processing time: 7.12 seconds
Total file time: 7.32 seconds
Status: SUCCESS
==================================================

=== SUCCESS LOG - 2025-10-14 11:12:42 ===
Input file: /data/retarget/locomotion/raw/AMASS_SMPLXG/CMU/79/79_96_stageii.npz
Output file: ../robot/ik_based/pkl/007130.pkl
Robot type: unitree_g1
Processing time: 4.34 seconds

STEP-BY-STEP TIMING:
  Step 1 - Load SMPLX:        0.80s
  Step 2 - Align FPS:         0.61s
  Step 3 - Init Retarget:     0.18s
  Step 4 - Init Visualization: 0.00s
  Step 5 - Process Frames:    2.71s
  Step 6 - Convert Arrays:    0.00s
  Step 7 - Forward Kinematics: 0.02s
  Step 8 - Save Data:         0.00s
Status: SUCCESS
==================================================

=== FILE SUCCESS - 2025-10-14 11:12:43 ===
File index: 007130
File number: 68/1001
Input file: /data/retarget/locomotion/raw/AMASS_SMPLXG/CMU/79/79_96_stageii.npz
Output file: ../robot/ik_based/pkl/007130.pkl
Processing time: 4.34 seconds
Total file time: 4.49 seconds
Status: SUCCESS
==================================================

=== ERROR LOG - 2025-10-14 11:12:43 ===
Input file: /data/retarget/locomotion/raw/AMASS_SMPLXG/CMU/79/male_stagei.npz
Output file: ../robot/ik_based/pkl/007131.pkl
Robot type: unitree_g1
Processing time: 0.64 seconds
Error message: 'pose_body is not a file in the archive'
Error type: KeyError
==================================================

=== FILE FAILURE - 2025-10-14 11:12:43 ===
File index: 007131
File number: 69/1001
Input file: /data/retarget/locomotion/raw/AMASS_SMPLXG/CMU/79/male_stagei.npz
Output file: ../robot/ik_based/pkl/007131.pkl
Processing time: 0.64 seconds
Total file time: 0.69 seconds
Status: FAILED
==================================================

=== SUCCESS LOG - 2025-10-14 11:12:49 ===
Input file: /data/retarget/locomotion/raw/AMASS_SMPLXG/CMU/80/80_01_stageii.npz
Output file: ../robot/ik_based/pkl/007132.pkl
Robot type: unitree_g1
Processing time: 6.05 seconds

STEP-BY-STEP TIMING:
  Step 1 - Load SMPLX:        0.93s
  Step 2 - Align FPS:         0.90s
  Step 3 - Init Retarget:     0.16s
  Step 4 - Init Visualization: 0.00s
  Step 5 - Process Frames:    4.02s
  Step 6 - Convert Arrays:    0.00s
  Step 7 - Forward Kinematics: 0.02s
  Step 8 - Save Data:         0.00s
Status: SUCCESS
==================================================

=== FILE SUCCESS - 2025-10-14 11:12:49 ===
File index: 007132
File number: 70/1001
Input file: /data/retarget/locomotion/raw/AMASS_SMPLXG/CMU/80/80_01_stageii.npz
Output file: ../robot/ik_based/pkl/007132.pkl
Processing time: 6.05 seconds
Total file time: 6.24 seconds
Status: SUCCESS
==================================================

=== SUCCESS LOG - 2025-10-14 11:12:55 ===
Input file: /data/retarget/locomotion/raw/AMASS_SMPLXG/CMU/80/80_02_stageii.npz
Output file: ../robot/ik_based/pkl/007133.pkl
Robot type: unitree_g1
Processing time: 5.47 seconds

STEP-BY-STEP TIMING:
  Step 1 - Load SMPLX:        0.85s
  Step 2 - Align FPS:         0.75s
  Step 3 - Init Retarget:     0.16s
  Step 4 - Init Visualization: 0.00s
  Step 5 - Process Frames:    3.67s
  Step 6 - Convert Arrays:    0.00s
  Step 7 - Forward Kinematics: 0.02s
  Step 8 - Save Data:         0.00s
Status: SUCCESS
==================================================

=== FILE SUCCESS - 2025-10-14 11:12:55 ===
File index: 007133
File number: 71/1001
Input file: /data/retarget/locomotion/raw/AMASS_SMPLXG/CMU/80/80_02_stageii.npz
Output file: ../robot/ik_based/pkl/007133.pkl
Processing time: 5.47 seconds
Total file time: 5.64 seconds
Status: SUCCESS
==================================================

=== SUCCESS LOG - 2025-10-14 11:13:00 ===
Input file: /data/retarget/locomotion/raw/AMASS_SMPLXG/CMU/80/80_03_stageii.npz
Output file: ../robot/ik_based/pkl/007134.pkl
Robot type: unitree_g1
Processing time: 4.93 seconds

STEP-BY-STEP TIMING:
  Step 1 - Load SMPLX:        0.83s
  Step 2 - Align FPS:         0.71s
  Step 3 - Init Retarget:     0.16s
  Step 4 - Init Visualization: 0.00s
  Step 5 - Process Frames:    3.19s
  Step 6 - Convert Arrays:    0.00s
  Step 7 - Forward Kinematics: 0.02s
  Step 8 - Save Data:         0.00s
Status: SUCCESS
==================================================

=== FILE SUCCESS - 2025-10-14 11:13:00 ===
File index: 007134
File number: 72/1001
Input file: /data/retarget/locomotion/raw/AMASS_SMPLXG/CMU/80/80_03_stageii.npz
Output file: ../robot/ik_based/pkl/007134.pkl
Processing time: 4.93 seconds
Total file time: 5.09 seconds
Status: SUCCESS
==================================================

=== SUCCESS LOG - 2025-10-14 11:13:07 ===
Input file: /data/retarget/locomotion/raw/AMASS_SMPLXG/CMU/80/80_04_stageii.npz
Output file: ../robot/ik_based/pkl/007135.pkl
Robot type: unitree_g1
Processing time: 7.04 seconds

STEP-BY-STEP TIMING:
  Step 1 - Load SMPLX:        0.96s
  Step 2 - Align FPS:         1.17s
  Step 3 - Init Retarget:     0.16s
  Step 4 - Init Visualization: 0.00s
  Step 5 - Process Frames:    4.72s
  Step 6 - Convert Arrays:    0.00s
  Step 7 - Forward Kinematics: 0.02s
  Step 8 - Save Data:         0.00s
Status: SUCCESS
==================================================

=== FILE SUCCESS - 2025-10-14 11:13:07 ===
File index: 007135
File number: 73/1001
Input file: /data/retarget/locomotion/raw/AMASS_SMPLXG/CMU/80/80_04_stageii.npz
Output file: ../robot/ik_based/pkl/007135.pkl
Processing time: 7.04 seconds
Total file time: 7.28 seconds
Status: SUCCESS
==================================================

=== SUCCESS LOG - 2025-10-14 11:13:16 ===
Input file: /data/retarget/locomotion/raw/AMASS_SMPLXG/CMU/80/80_05_stageii.npz
Output file: ../robot/ik_based/pkl/007136.pkl
Robot type: unitree_g1
Processing time: 9.00 seconds

STEP-BY-STEP TIMING:
  Step 1 - Load SMPLX:        0.98s
  Step 2 - Align FPS:         1.23s
  Step 3 - Init Retarget:     0.16s
  Step 4 - Init Visualization: 0.00s
  Step 5 - Process Frames:    6.59s
  Step 6 - Convert Arrays:    0.00s
  Step 7 - Forward Kinematics: 0.02s
  Step 8 - Save Data:         0.00s
Status: SUCCESS
==================================================

=== FILE SUCCESS - 2025-10-14 11:13:17 ===
File index: 007136
File number: 74/1001
Input file: /data/retarget/locomotion/raw/AMASS_SMPLXG/CMU/80/80_05_stageii.npz
Output file: ../robot/ik_based/pkl/007136.pkl
Processing time: 9.00 seconds
Total file time: 9.23 seconds
Status: SUCCESS
==================================================

=== SUCCESS LOG - 2025-10-14 11:13:23 ===
Input file: /data/retarget/locomotion/raw/AMASS_SMPLXG/CMU/80/80_06_stageii.npz
Output file: ../robot/ik_based/pkl/007137.pkl
Robot type: unitree_g1
Processing time: 6.51 seconds

STEP-BY-STEP TIMING:
  Step 1 - Load SMPLX:        0.93s
  Step 2 - Align FPS:         1.00s
  Step 3 - Init Retarget:     0.16s
  Step 4 - Init Visualization: 0.00s
  Step 5 - Process Frames:    4.37s
  Step 6 - Convert Arrays:    0.00s
  Step 7 - Forward Kinematics: 0.02s
  Step 8 - Save Data:         0.00s
Status: SUCCESS
==================================================

=== FILE SUCCESS - 2025-10-14 11:13:23 ===
File index: 007137
File number: 75/1001
Input file: /data/retarget/locomotion/raw/AMASS_SMPLXG/CMU/80/80_06_stageii.npz
Output file: ../robot/ik_based/pkl/007137.pkl
Processing time: 6.51 seconds
Total file time: 6.71 seconds
Status: SUCCESS
==================================================

=== SUCCESS LOG - 2025-10-14 11:13:36 ===
Input file: /data/retarget/locomotion/raw/AMASS_SMPLXG/CMU/80/80_07_stageii.npz
Output file: ../robot/ik_based/pkl/007138.pkl
Robot type: unitree_g1
Processing time: 12.25 seconds

STEP-BY-STEP TIMING:
  Step 1 - Load SMPLX:        1.09s
  Step 2 - Align FPS:         1.63s
  Step 3 - Init Retarget:     0.16s
  Step 4 - Init Visualization: 0.00s
  Step 5 - Process Frames:    9.33s
  Step 6 - Convert Arrays:    0.00s
  Step 7 - Forward Kinematics: 0.02s
  Step 8 - Save Data:         0.00s
Status: SUCCESS
==================================================

=== FILE SUCCESS - 2025-10-14 11:13:36 ===
File index: 007138
File number: 76/1001
Input file: /data/retarget/locomotion/raw/AMASS_SMPLXG/CMU/80/80_07_stageii.npz
Output file: ../robot/ik_based/pkl/007138.pkl
Processing time: 12.25 seconds
Total file time: 12.55 seconds
Status: SUCCESS
==================================================

=== SUCCESS LOG - 2025-10-14 11:13:42 ===
Input file: /data/retarget/locomotion/raw/AMASS_SMPLXG/CMU/80/80_08_stageii.npz
Output file: ../robot/ik_based/pkl/007139.pkl
Robot type: unitree_g1
Processing time: 6.11 seconds

STEP-BY-STEP TIMING:
  Step 1 - Load SMPLX:        0.91s
  Step 2 - Align FPS:         0.93s
  Step 3 - Init Retarget:     0.16s
  Step 4 - Init Visualization: 0.00s
  Step 5 - Process Frames:    4.07s
  Step 6 - Convert Arrays:    0.00s
  Step 7 - Forward Kinematics: 0.02s
  Step 8 - Save Data:         0.00s
Status: SUCCESS
==================================================

=== FILE SUCCESS - 2025-10-14 11:13:42 ===
File index: 007139
File number: 77/1001
Input file: /data/retarget/locomotion/raw/AMASS_SMPLXG/CMU/80/80_08_stageii.npz
Output file: ../robot/ik_based/pkl/007139.pkl
Processing time: 6.11 seconds
Total file time: 6.30 seconds
Status: SUCCESS
==================================================

=== SUCCESS LOG - 2025-10-14 11:13:54 ===
Input file: /data/retarget/locomotion/raw/AMASS_SMPLXG/CMU/80/80_09_stageii.npz
Output file: ../robot/ik_based/pkl/007140.pkl
Robot type: unitree_g1
Processing time: 12.21 seconds

STEP-BY-STEP TIMING:
  Step 1 - Load SMPLX:        1.09s
  Step 2 - Align FPS:         1.59s
  Step 3 - Init Retarget:     0.16s
  Step 4 - Init Visualization: 0.00s
  Step 5 - Process Frames:    9.33s
  Step 6 - Convert Arrays:    0.00s
  Step 7 - Forward Kinematics: 0.02s
  Step 8 - Save Data:         0.00s
Status: SUCCESS
==================================================

=== FILE SUCCESS - 2025-10-14 11:13:55 ===
File index: 007140
File number: 78/1001
Input file: /data/retarget/locomotion/raw/AMASS_SMPLXG/CMU/80/80_09_stageii.npz
Output file: ../robot/ik_based/pkl/007140.pkl
Processing time: 12.21 seconds
Total file time: 12.51 seconds
Status: SUCCESS
==================================================

=== SUCCESS LOG - 2025-10-14 11:14:03 ===
Input file: /data/retarget/locomotion/raw/AMASS_SMPLXG/CMU/80/80_10_stageii.npz
Output file: ../robot/ik_based/pkl/007141.pkl
Robot type: unitree_g1
Processing time: 7.94 seconds

STEP-BY-STEP TIMING:
  Step 1 - Load SMPLX:        0.87s
  Step 2 - Align FPS:         0.82s
  Step 3 - Init Retarget:     0.16s
  Step 4 - Init Visualization: 0.00s
  Step 5 - Process Frames:    6.05s
  Step 6 - Convert Arrays:    0.00s
  Step 7 - Forward Kinematics: 0.02s
  Step 8 - Save Data:         0.00s
Status: SUCCESS
==================================================

=== FILE SUCCESS - 2025-10-14 11:14:03 ===
File index: 007141
File number: 79/1001
Input file: /data/retarget/locomotion/raw/AMASS_SMPLXG/CMU/80/80_10_stageii.npz
Output file: ../robot/ik_based/pkl/007141.pkl
Processing time: 7.94 seconds
Total file time: 8.12 seconds
Status: SUCCESS
==================================================

=== SUCCESS LOG - 2025-10-14 11:14:09 ===
Input file: /data/retarget/locomotion/raw/AMASS_SMPLXG/CMU/80/80_11_stageii.npz
Output file: ../robot/ik_based/pkl/007142.pkl
Robot type: unitree_g1
Processing time: 5.83 seconds

STEP-BY-STEP TIMING:
  Step 1 - Load SMPLX:        0.85s
  Step 2 - Align FPS:         0.75s
  Step 3 - Init Retarget:     0.16s
  Step 4 - Init Visualization: 0.00s
  Step 5 - Process Frames:    4.03s
  Step 6 - Convert Arrays:    0.00s
  Step 7 - Forward Kinematics: 0.02s
  Step 8 - Save Data:         0.00s
Status: SUCCESS
==================================================

=== FILE SUCCESS - 2025-10-14 11:14:09 ===
File index: 007142
File number: 80/1001
Input file: /data/retarget/locomotion/raw/AMASS_SMPLXG/CMU/80/80_11_stageii.npz
Output file: ../robot/ik_based/pkl/007142.pkl
Processing time: 5.83 seconds
Total file time: 6.00 seconds
Status: SUCCESS
==================================================

=== SUCCESS LOG - 2025-10-14 11:14:20 ===
Input file: /data/retarget/locomotion/raw/AMASS_SMPLXG/CMU/80/80_12_stageii.npz
Output file: ../robot/ik_based/pkl/007143.pkl
Robot type: unitree_g1
Processing time: 11.27 seconds

STEP-BY-STEP TIMING:
  Step 1 - Load SMPLX:        1.11s
  Step 2 - Align FPS:         1.68s
  Step 3 - Init Retarget:     0.16s
  Step 4 - Init Visualization: 0.00s
  Step 5 - Process Frames:    8.28s
  Step 6 - Convert Arrays:    0.00s
  Step 7 - Forward Kinematics: 0.02s
  Step 8 - Save Data:         0.00s
Status: SUCCESS
==================================================

=== FILE SUCCESS - 2025-10-14 11:14:20 ===
File index: 007143
File number: 81/1001
Input file: /data/retarget/locomotion/raw/AMASS_SMPLXG/CMU/80/80_12_stageii.npz
Output file: ../robot/ik_based/pkl/007143.pkl
Processing time: 11.27 seconds
Total file time: 11.57 seconds
Status: SUCCESS
==================================================

=== SUCCESS LOG - 2025-10-14 11:14:30 ===
Input file: /data/retarget/locomotion/raw/AMASS_SMPLXG/CMU/80/80_13_stageii.npz
Output file: ../robot/ik_based/pkl/007144.pkl
Robot type: unitree_g1
Processing time: 9.53 seconds

STEP-BY-STEP TIMING:
  Step 1 - Load SMPLX:        0.94s
  Step 2 - Align FPS:         1.06s
  Step 3 - Init Retarget:     0.16s
  Step 4 - Init Visualization: 0.00s
  Step 5 - Process Frames:    7.32s
  Step 6 - Convert Arrays:    0.00s
  Step 7 - Forward Kinematics: 0.02s
  Step 8 - Save Data:         0.00s
Status: SUCCESS
==================================================

=== FILE SUCCESS - 2025-10-14 11:14:30 ===
File index: 007144
File number: 82/1001
Input file: /data/retarget/locomotion/raw/AMASS_SMPLXG/CMU/80/80_13_stageii.npz
Output file: ../robot/ik_based/pkl/007144.pkl
Processing time: 9.53 seconds
Total file time: 9.74 seconds
Status: SUCCESS
==================================================

=== SUCCESS LOG - 2025-10-14 11:14:41 ===
Input file: /data/retarget/locomotion/raw/AMASS_SMPLXG/CMU/80/80_14_stageii.npz
Output file: ../robot/ik_based/pkl/007145.pkl
Robot type: unitree_g1
Processing time: 11.07 seconds

STEP-BY-STEP TIMING:
  Step 1 - Load SMPLX:        1.14s
  Step 2 - Align FPS:         1.79s
  Step 3 - Init Retarget:     0.18s
  Step 4 - Init Visualization: 0.00s
  Step 5 - Process Frames:    7.92s
  Step 6 - Convert Arrays:    0.00s
  Step 7 - Forward Kinematics: 0.02s
  Step 8 - Save Data:         0.00s
Status: SUCCESS
==================================================

=== FILE SUCCESS - 2025-10-14 11:14:42 ===
File index: 007145
File number: 83/1001
Input file: /data/retarget/locomotion/raw/AMASS_SMPLXG/CMU/80/80_14_stageii.npz
Output file: ../robot/ik_based/pkl/007145.pkl
Processing time: 11.07 seconds
Total file time: 11.40 seconds
Status: SUCCESS
==================================================

=== SUCCESS LOG - 2025-10-14 11:14:51 ===
Input file: /data/retarget/locomotion/raw/AMASS_SMPLXG/CMU/80/80_15_stageii.npz
Output file: ../robot/ik_based/pkl/007146.pkl
Robot type: unitree_g1
Processing time: 9.07 seconds

STEP-BY-STEP TIMING:
  Step 1 - Load SMPLX:        1.01s
  Step 2 - Align FPS:         1.29s
  Step 3 - Init Retarget:     0.17s
  Step 4 - Init Visualization: 0.00s
  Step 5 - Process Frames:    6.56s
  Step 6 - Convert Arrays:    0.00s
  Step 7 - Forward Kinematics: 0.02s
  Step 8 - Save Data:         0.00s
Status: SUCCESS
==================================================

=== FILE SUCCESS - 2025-10-14 11:14:51 ===
File index: 007146
File number: 84/1001
Input file: /data/retarget/locomotion/raw/AMASS_SMPLXG/CMU/80/80_15_stageii.npz
Output file: ../robot/ik_based/pkl/007146.pkl
Processing time: 9.07 seconds
Total file time: 9.31 seconds
Status: SUCCESS
==================================================

=== SUCCESS LOG - 2025-10-14 11:14:59 ===
Input file: /data/retarget/locomotion/raw/AMASS_SMPLXG/CMU/80/80_16_stageii.npz
Output file: ../robot/ik_based/pkl/007147.pkl
Robot type: unitree_g1
Processing time: 8.54 seconds

STEP-BY-STEP TIMING:
  Step 1 - Load SMPLX:        1.01s
  Step 2 - Align FPS:         1.31s
  Step 3 - Init Retarget:     0.16s
  Step 4 - Init Visualization: 0.00s
  Step 5 - Process Frames:    6.02s
  Step 6 - Convert Arrays:    0.00s
  Step 7 - Forward Kinematics: 0.02s
  Step 8 - Save Data:         0.00s
Status: SUCCESS
==================================================

=== FILE SUCCESS - 2025-10-14 11:15:00 ===
File index: 007147
File number: 85/1001
Input file: /data/retarget/locomotion/raw/AMASS_SMPLXG/CMU/80/80_16_stageii.npz
Output file: ../robot/ik_based/pkl/007147.pkl
Processing time: 8.54 seconds
Total file time: 8.79 seconds
Status: SUCCESS
==================================================

=== SUCCESS LOG - 2025-10-14 11:15:10 ===
Input file: /data/retarget/locomotion/raw/AMASS_SMPLXG/CMU/80/80_17_stageii.npz
Output file: ../robot/ik_based/pkl/007148.pkl
Robot type: unitree_g1
Processing time: 10.30 seconds

STEP-BY-STEP TIMING:
  Step 1 - Load SMPLX:        1.05s
  Step 2 - Align FPS:         1.51s
  Step 3 - Init Retarget:     0.20s
  Step 4 - Init Visualization: 0.00s
  Step 5 - Process Frames:    7.50s
  Step 6 - Convert Arrays:    0.00s
  Step 7 - Forward Kinematics: 0.02s
  Step 8 - Save Data:         0.00s
Status: SUCCESS
==================================================

=== FILE SUCCESS - 2025-10-14 11:15:10 ===
File index: 007148
File number: 86/1001
Input file: /data/retarget/locomotion/raw/AMASS_SMPLXG/CMU/80/80_17_stageii.npz
Output file: ../robot/ik_based/pkl/007148.pkl
Processing time: 10.30 seconds
Total file time: 10.59 seconds
Status: SUCCESS
==================================================

=== SUCCESS LOG - 2025-10-14 11:15:21 ===
Input file: /data/retarget/locomotion/raw/AMASS_SMPLXG/CMU/80/80_18_stageii.npz
Output file: ../robot/ik_based/pkl/007149.pkl
Robot type: unitree_g1
Processing time: 10.59 seconds

[...]
  Step 8 - Save Data:         0.01s
Status: SUCCESS
==================================================

=== FILE SUCCESS - 2025-10-14 13:21:32 ===
File index: 007724
File number: 662/1001
Input file: /data/retarget/locomotion/raw/AMASS_SMPLXG/DanceDB/20131001_OliviaKyriakides/Olivia_Excited_C3D_stageii.npz
Output file: ../robot/ik_based/pkl/007724.pkl
Processing time: 99.75 seconds
Total file time: 101.35 seconds
Status: SUCCESS
==================================================

=== SUCCESS LOG - 2025-10-14 13:23:31 ===
Input file: /data/retarget/locomotion/raw/AMASS_SMPLXG/DanceDB/20131001_OliviaKyriakides/Olivia_Happy_C3D_stageii.npz
Output file: ../robot/ik_based/pkl/007725.pkl
Robot type: unitree_g1
Processing time: 119.26 seconds

STEP-BY-STEP TIMING:
  Step 1 - Load SMPLX:        3.50s
  Step 2 - Align FPS:         11.22s
  Step 3 - Init Retarget:     0.24s
  Step 4 - Init Visualization: 0.00s
  Step 5 - Process Frames:    104.14s
  Step 6 - Convert Arrays:    0.01s
  Step 7 - Forward Kinematics: 0.12s
  Step 8 - Save Data:         0.00s
Status: SUCCESS
==================================================

=== FILE SUCCESS - 2025-10-14 13:23:33 ===
File index: 007725
File number: 663/1001
Input file: /data/retarget/locomotion/raw/AMASS_SMPLXG/DanceDB/20131001_OliviaKyriakides/Olivia_Happy_C3D_stageii.npz
Output file: ../robot/ik_based/pkl/007725.pkl
Processing time: 119.26 seconds
Total file time: 120.84 seconds
Status: SUCCESS
==================================================

=== SUCCESS LOG - 2025-10-14 13:25:13 ===
Input file: /data/retarget/locomotion/raw/AMASS_SMPLXG/DanceDB/20131001_OliviaKyriakides/Olivia_Miserable_C3D_stageii.npz
Output file: ../robot/ik_based/pkl/007726.pkl
Robot type: unitree_g1
Processing time: 99.79 seconds

STEP-BY-STEP TIMING:
  Step 1 - Load SMPLX:        3.55s
  Step 2 - Align FPS:         11.32s
  Step 3 - Init Retarget:     0.19s
  Step 4 - Init Visualization: 0.00s
  Step 5 - Process Frames:    84.64s
  Step 6 - Convert Arrays:    0.01s
  Step 7 - Forward Kinematics: 0.05s
  Step 8 - Save Data:         0.01s
Status: SUCCESS
==================================================

=== FILE SUCCESS - 2025-10-14 13:25:14 ===
File index: 007726
File number: 664/1001
Input file: /data/retarget/locomotion/raw/AMASS_SMPLXG/DanceDB/20131001_OliviaKyriakides/Olivia_Miserable_C3D_stageii.npz
Output file: ../robot/ik_based/pkl/007726.pkl
Processing time: 99.79 seconds
Total file time: 101.42 seconds
Status: SUCCESS
==================================================

=== SUCCESS LOG - 2025-10-14 13:25:16 ===
Input file: /data/retarget/locomotion/raw/AMASS_SMPLXG/DanceDB/20131001_OliviaKyriakides/Olivia_Mix_C3D_stageii.npz
Output file: ../robot/ik_based/pkl/007727.pkl
Robot type: unitree_g1
Processing time: 1.43 seconds

STEP-BY-STEP TIMING:
  Step 1 - Load SMPLX:        0.67s
  Step 2 - Align FPS:         0.11s
  Step 3 - Init Retarget:     0.25s
  Step 4 - Init Visualization: 0.00s
  Step 5 - Process Frames:    0.35s
  Step 6 - Convert Arrays:    0.00s
  Step 7 - Forward Kinematics: 0.02s
  Step 8 - Save Data:         0.00s
Status: SUCCESS
==================================================

=== FILE SUCCESS - 2025-10-14 13:25:16 ===
File index: 007727
File number: 665/1001
Input file: /data/retarget/locomotion/raw/AMASS_SMPLXG/DanceDB/20131001_OliviaKyriakides/Olivia_Mix_C3D_stageii.npz
Output file: ../robot/ik_based/pkl/007727.pkl
Processing time: 1.43 seconds
Total file time: 1.49 seconds
Status: SUCCESS
==================================================

=== SUCCESS LOG - 2025-10-14 13:27:03 ===
Input file: /data/retarget/locomotion/raw/AMASS_SMPLXG/DanceDB/20131001_OliviaKyriakides/Olivia_Pleased_C3D_stageii.npz
Output file: ../robot/ik_based/pkl/007728.pkl
Robot type: unitree_g1
Processing time: 107.07 seconds

STEP-BY-STEP TIMING:
  Step 1 - Load SMPLX:        3.74s
  Step 2 - Align FPS:         12.06s
  Step 3 - Init Retarget:     0.19s
  Step 4 - Init Visualization: 0.00s
  Step 5 - Process Frames:    91.01s
  Step 6 - Convert Arrays:    0.01s
  Step 7 - Forward Kinematics: 0.05s
  Step 8 - Save Data:         0.00s
Status: SUCCESS
==================================================

=== FILE SUCCESS - 2025-10-14 13:27:05 ===
File index: 007728
File number: 666/1001
Input file: /data/retarget/locomotion/raw/AMASS_SMPLXG/DanceDB/20131001_OliviaKyriakides/Olivia_Pleased_C3D_stageii.npz
Output file: ../robot/ik_based/pkl/007728.pkl
Processing time: 107.07 seconds
Total file time: 108.73 seconds
Status: SUCCESS
==================================================

=== SUCCESS LOG - 2025-10-14 13:28:59 ===
Input file: /data/retarget/locomotion/raw/AMASS_SMPLXG/DanceDB/20131001_OliviaKyriakides/Olivia_Relaxed_C3D_stageii.npz
Output file: ../robot/ik_based/pkl/007729.pkl
Robot type: unitree_g1
Processing time: 114.11 seconds

STEP-BY-STEP TIMING:
  Step 1 - Load SMPLX:        3.81s
  Step 2 - Align FPS:         12.30s
  Step 3 - Init Retarget:     0.16s
  Step 4 - Init Visualization: 0.00s
  Step 5 - Process Frames:    97.76s
  Step 6 - Convert Arrays:    0.01s
  Step 7 - Forward Kinematics: 0.05s
  Step 8 - Save Data:         0.00s
Status: SUCCESS
==================================================

=== FILE SUCCESS - 2025-10-14 13:29:00 ===
File index: 007729
File number: 667/1001
Input file: /data/retarget/locomotion/raw/AMASS_SMPLXG/DanceDB/20131001_OliviaKyriakides/Olivia_Relaxed_C3D_stageii.npz
Output file: ../robot/ik_based/pkl/007729.pkl
Processing time: 114.11 seconds
Total file time: 115.81 seconds
Status: SUCCESS
==================================================

=== SUCCESS LOG - 2025-10-14 13:30:50 ===
Input file: /data/retarget/locomotion/raw/AMASS_SMPLXG/DanceDB/20131001_OliviaKyriakides/Olivia_Sad_C3D_stageii.npz
Output file: ../robot/ik_based/pkl/007730.pkl
Robot type: unitree_g1
Processing time: 109.23 seconds

STEP-BY-STEP TIMING:
  Step 1 - Load SMPLX:        3.68s
  Step 2 - Align FPS:         11.90s
  Step 3 - Init Retarget:     0.16s
  Step 4 - Init Visualization: 0.00s
  Step 5 - Process Frames:    93.39s
  Step 6 - Convert Arrays:    0.01s
  Step 7 - Forward Kinematics: 0.06s
  Step 8 - Save Data:         0.00s
Status: SUCCESS
==================================================

=== FILE SUCCESS - 2025-10-14 13:30:51 ===
File index: 007730
File number: 668/1001
Input file: /data/retarget/locomotion/raw/AMASS_SMPLXG/DanceDB/20131001_OliviaKyriakides/Olivia_Sad_C3D_stageii.npz
Output file: ../robot/ik_based/pkl/007730.pkl
Processing time: 109.23 seconds
Total file time: 110.88 seconds
Status: SUCCESS
==================================================

=== SUCCESS LOG - 2025-10-14 13:32:43 ===
Input file: /data/retarget/locomotion/raw/AMASS_SMPLXG/DanceDB/20131001_OliviaKyriakides/Olivia_Satisfied_C3D_stageii.npz
Output file: ../robot/ik_based/pkl/007731.pkl
Robot type: unitree_g1
Processing time: 111.52 seconds

STEP-BY-STEP TIMING:
  Step 1 - Load SMPLX:        3.89s
  Step 2 - Align FPS:         12.65s
  Step 3 - Init Retarget:     0.16s
  Step 4 - Init Visualization: 0.00s
  Step 5 - Process Frames:    94.73s
  Step 6 - Convert Arrays:    0.01s
  Step 7 - Forward Kinematics: 0.05s
  Step 8 - Save Data:         0.01s
Status: SUCCESS
==================================================

=== FILE SUCCESS - 2025-10-14 13:32:45 ===
File index: 007731
File number: 669/1001
Input file: /data/retarget/locomotion/raw/AMASS_SMPLXG/DanceDB/20131001_OliviaKyriakides/Olivia_Satisfied_C3D_stageii.npz
Output file: ../robot/ik_based/pkl/007731.pkl
Processing time: 111.52 seconds
Total file time: 113.28 seconds
Status: SUCCESS
==================================================

=== SUCCESS LOG - 2025-10-14 13:34:11 ===
Input file: /data/retarget/locomotion/raw/AMASS_SMPLXG/DanceDB/20131001_OliviaKyriakides/Olivia_Tired_C3D_stageii.npz
Output file: ../robot/ik_based/pkl/007732.pkl
Robot type: unitree_g1
Processing time: 86.51 seconds

STEP-BY-STEP TIMING:
  Step 1 - Load SMPLX:        3.71s
  Step 2 - Align FPS:         11.85s
  Step 3 - Init Retarget:     0.25s
  Step 4 - Init Visualization: 0.00s
  Step 5 - Process Frames:    70.62s
  Step 6 - Convert Arrays:    0.01s
  Step 7 - Forward Kinematics: 0.05s
  Step 8 - Save Data:         0.00s
Status: SUCCESS
==================================================

=== FILE SUCCESS - 2025-10-14 13:34:13 ===
File index: 007732
File number: 670/1001
Input file: /data/retarget/locomotion/raw/AMASS_SMPLXG/DanceDB/20131001_OliviaKyriakides/Olivia_Tired_C3D_stageii.npz
Output file: ../robot/ik_based/pkl/007732.pkl
Processing time: 86.51 seconds
Total file time: 88.15 seconds
Status: SUCCESS
==================================================

=== ERROR LOG - 2025-10-14 13:34:13 ===
Input file: /data/retarget/locomotion/raw/AMASS_SMPLXG/DanceDB/20131001_OliviaKyriakides/female_stagei.npz
Output file: ../robot/ik_based/pkl/007733.pkl
Robot type: unitree_g1
Processing time: 0.63 seconds
Error message: 'pose_body is not a file in the archive'
Error type: KeyError
==================================================

=== FILE FAILURE - 2025-10-14 13:34:13 ===
File index: 007733
File number: 671/1001
Input file: /data/retarget/locomotion/raw/AMASS_SMPLXG/DanceDB/20131001_OliviaKyriakides/female_stagei.npz
Output file: ../robot/ik_based/pkl/007733.pkl
Processing time: 0.63 seconds
Total file time: 0.68 seconds
Status: FAILED
==================================================

=== SUCCESS LOG - 2025-10-14 13:36:00 ===
Input file: /data/retarget/locomotion/raw/AMASS_SMPLXG/DanceDB/20131001_SophieKamenou/Sophie_Afraid_C3D_stageii.npz
Output file: ../robot/ik_based/pkl/007734.pkl
Robot type: unitree_g1
Processing time: 106.22 seconds

STEP-BY-STEP TIMING:
  Step 1 - Load SMPLX:        3.53s
  Step 2 - Align FPS:         10.94s
  Step 3 - Init Retarget:     0.18s
  Step 4 - Init Visualization: 0.00s
  Step 5 - Process Frames:    91.47s
  Step 6 - Convert Arrays:    0.01s
  Step 7 - Forward Kinematics: 0.06s
  Step 8 - Save Data:         0.00s
Status: SUCCESS
==================================================

=== FILE SUCCESS - 2025-10-14 13:36:01 ===
File index: 007734
File number: 672/1001
Input file: /data/retarget/locomotion/raw/AMASS_SMPLXG/DanceDB/20131001_SophieKamenou/Sophie_Afraid_C3D_stageii.npz
Output file: ../robot/ik_based/pkl/007734.pkl
Processing time: 106.22 seconds
Total file time: 107.77 seconds
Status: SUCCESS
==================================================

=== SUCCESS LOG - 2025-10-14 13:37:39 ===
Input file: /data/retarget/locomotion/raw/AMASS_SMPLXG/DanceDB/20131001_SophieKamenou/Sophie_Bored_C3D_stageii.npz
Output file: ../robot/ik_based/pkl/007735.pkl
Robot type: unitree_g1
Processing time: 97.94 seconds

STEP-BY-STEP TIMING:
  Step 1 - Load SMPLX:        3.24s
  Step 2 - Align FPS:         9.95s
  Step 3 - Init Retarget:     0.16s
  Step 4 - Init Visualization: 0.00s
  Step 5 - Process Frames:    84.49s
  Step 6 - Convert Arrays:    0.01s
  Step 7 - Forward Kinematics: 0.06s
  Step 8 - Save Data:         0.01s
Status: SUCCESS
==================================================

=== FILE SUCCESS - 2025-10-14 13:37:41 ===
File index: 007735
File number: 673/1001
Input file: /data/retarget/locomotion/raw/AMASS_SMPLXG/DanceDB/20131001_SophieKamenou/Sophie_Bored_C3D_stageii.npz
Output file: ../robot/ik_based/pkl/007735.pkl
Processing time: 97.94 seconds
Total file time: 99.39 seconds
Status: SUCCESS
==================================================

=== SUCCESS LOG - 2025-10-14 13:39:52 ===
Input file: /data/retarget/locomotion/raw/AMASS_SMPLXG/DanceDB/20131001_SophieKamenou/Sophie_Excited_C3D_stageii.npz
Output file: ../robot/ik_based/pkl/007736.pkl
Robot type: unitree_g1
Processing time: 131.68 seconds

STEP-BY-STEP TIMING:
  Step 1 - Load SMPLX:        3.73s
  Step 2 - Align FPS:         12.05s
  Step 3 - Init Retarget:     0.37s
  Step 4 - Init Visualization: 0.00s
  Step 5 - Process Frames:    115.41s
  Step 6 - Convert Arrays:    0.01s
  Step 7 - Forward Kinematics: 0.07s
  Step 8 - Save Data:         0.00s
Status: SUCCESS
==================================================

=== FILE SUCCESS - 2025-10-14 13:39:54 ===
File index: 007736
File number: 674/1001
Input file: /data/retarget/locomotion/raw/AMASS_SMPLXG/DanceDB/20131001_SophieKamenou/Sophie_Excited_C3D_stageii.npz
Output file: ../robot/ik_based/pkl/007736.pkl
Processing time: 131.68 seconds
Total file time: 133.52 seconds
Status: SUCCESS
==================================================

=== SUCCESS LOG - 2025-10-14 13:42:21 ===
Input file: /data/retarget/locomotion/raw/AMASS_SMPLXG/DanceDB/20131001_SophieKamenou/Sophie_Happy_C3D_stageii.npz
Output file: ../robot/ik_based/pkl/007737.pkl
Robot type: unitree_g1
Processing time: 146.62 seconds

STEP-BY-STEP TIMING:
  Step 1 - Load SMPLX:        3.97s
  Step 2 - Align FPS:         13.38s
  Step 3 - Init Retarget:     0.21s
  Step 4 - Init Visualization: 0.00s
  Step 5 - Process Frames:    128.97s
  Step 6 - Convert Arrays:    0.01s
  Step 7 - Forward Kinematics: 0.06s
  Step 8 - Save Data:         0.01s
Status: SUCCESS
==================================================

=== FILE SUCCESS - 2025-10-14 13:42:22 ===
File index: 007737
File number: 675/1001
Input file: /data/retarget/locomotion/raw/AMASS_SMPLXG/DanceDB/20131001_SophieKamenou/Sophie_Happy_C3D_stageii.npz
Output file: ../robot/ik_based/pkl/007737.pkl
Processing time: 146.62 seconds
Total file time: 148.43 seconds
Status: SUCCESS
==================================================

=== SUCCESS LOG - 2025-10-14 13:44:01 ===
Input file: /data/retarget/locomotion/raw/AMASS_SMPLXG/DanceDB/20131001_SophieKamenou/Sophie_Tired_C3D_stageii.npz
Output file: ../robot/ik_based/pkl/007738.pkl
Robot type: unitree_g1
Processing time: 98.31 seconds

STEP-BY-STEP TIMING:
  Step 1 - Load SMPLX:        3.76s
  Step 2 - Align FPS:         12.04s
  Step 3 - Init Retarget:     0.25s
  Step 4 - Init Visualization: 0.00s
  Step 5 - Process Frames:    82.17s
  Step 6 - Convert Arrays:    0.01s
  Step 7 - Forward Kinematics: 0.05s
  Step 8 - Save Data:         0.00s
Status: SUCCESS
==================================================

=== FILE SUCCESS - 2025-10-14 13:44:03 ===
File index: 007738
File number: 676/1001
Input file: /data/retarget/locomotion/raw/AMASS_SMPLXG/DanceDB/20131001_SophieKamenou/Sophie_Tired_C3D_stageii.npz
Output file: ../robot/ik_based/pkl/007738.pkl
Processing time: 98.31 seconds
Total file time: 100.03 seconds
Status: SUCCESS
==================================================

=== ERROR LOG - 2025-10-14 13:44:03 ===
Input file: /data/retarget/locomotion/raw/AMASS_SMPLXG/DanceDB/20131001_SophieKamenou/female_stagei.npz
Output file: ../robot/ik_based/pkl/007739.pkl
Robot type: unitree_g1
Processing time: 0.72 seconds
Error message: 'pose_body is not a file in the archive'
Error type: KeyError
==================================================

=== FILE FAILURE - 2025-10-14 13:44:03 ===
File index: 007739
File number: 677/1001
Input file: /data/retarget/locomotion/raw/AMASS_SMPLXG/DanceDB/20131001_SophieKamenou/female_stagei.npz
Output file: ../robot/ik_based/pkl/007739.pkl
Processing time: 0.72 seconds
Total file time: 0.77 seconds
Status: FAILED
==================================================

=== SUCCESS LOG - 2025-10-14 13:46:02 ===
Input file: /data/retarget/locomotion/raw/AMASS_SMPLXG/DanceDB/20131001_TheodoraTsiakka/Theodora_Afraid_C3D_stageii.npz
Output file: ../robot/ik_based/pkl/007740.pkl
Robot type: unitree_g1
Processing time: 118.32 seconds

STEP-BY-STEP TIMING:
  Step 1 - Load SMPLX:        3.87s
  Step 2 - Align FPS:         12.55s
  Step 3 - Init Retarget:     0.18s
  Step 4 - Init Visualization: 0.00s
  Step 5 - Process Frames:    101.62s
  Step 6 - Convert Arrays:    0.01s
  Step 7 - Forward Kinematics: 0.06s
  Step 8 - Save Data:         0.00s
Status: SUCCESS
==================================================

=== FILE SUCCESS - 2025-10-14 13:46:03 ===
File index: 007740
File number: 678/1001
Input file: /data/retarget/locomotion/raw/AMASS_SMPLXG/DanceDB/20131001_TheodoraTsiakka/Theodora_Afraid_C3D_stageii.npz
Output file: ../robot/ik_based/pkl/007740.pkl
Processing time: 118.32 seconds
Total file time: 120.09 seconds
Status: SUCCESS
==================================================

=== SUCCESS LOG - 2025-10-14 13:48:21 ===
Input file: /data/retarget/locomotion/raw/AMASS_SMPLXG/DanceDB/20131001_TheodoraTsiakka/Theodora_Bored_C3D_stageii.npz
Output file: ../robot/ik_based/pkl/007741.pkl
Robot type: unitree_g1
Processing time: 137.66 seconds

STEP-BY-STEP TIMING:
  Step 1 - Load SMPLX:        3.81s
  Step 2 - Align FPS:         12.39s
  Step 3 - Init Retarget:     0.25s
  Step 4 - Init Visualization: 0.00s
  Step 5 - Process Frames:    121.06s
  Step 6 - Convert Arrays:    0.01s
  Step 7 - Forward Kinematics: 0.13s
  Step 8 - Save Data:         0.01s
Status: SUCCESS
==================================================

=== FILE SUCCESS - 2025-10-14 13:48:23 ===
File index: 007741
File number: 679/1001
Input file: /data/retarget/locomotion/raw/AMASS_SMPLXG/DanceDB/20131001_TheodoraTsiakka/Theodora_Bored_C3D_stageii.npz
Output file: ../robot/ik_based/pkl/007741.pkl
Processing time: 137.66 seconds
Total file time: 139.42 seconds
Status: SUCCESS
==================================================

=== SUCCESS LOG - 2025-10-14 13:50:20 ===
Input file: /data/retarget/locomotion/raw/AMASS_SMPLXG/DanceDB/20131001_TheodoraTsiakka/Theodora_Excited_C3D_stageii.npz
Output file: ../robot/ik_based/pkl/007742.pkl
Robot type: unitree_g1
Processing time: 117.68 seconds

STEP-BY-STEP TIMING:
  Step 1 - Load SMPLX:        3.63s
  Step 2 - Align FPS:         11.86s
  Step 3 - Init Retarget:     0.18s
  Step 4 - Init Visualization: 0.00s
  Step 5 - Process Frames:    101.91s
  Step 6 - Convert Arrays:    0.01s
  Step 7 - Forward Kinematics: 0.06s
  Step 8 - Save Data:         0.01s
Status: SUCCESS
==================================================

=== FILE SUCCESS - 2025-10-14 13:50:22 ===
File index: 007742
File number: 680/1001
Input file: /data/retarget/locomotion/raw/AMASS_SMPLXG/DanceDB/20131001_TheodoraTsiakka/Theodora_Excited_C3D_stageii.npz
Output file: ../robot/ik_based/pkl/007742.pkl
Processing time: 117.68 seconds
Total file time: 119.34 seconds
Status: SUCCESS
==================================================

=== SUCCESS LOG - 2025-10-14 13:52:36 ===
Input file: /data/retarget/locomotion/raw/AMASS_SMPLXG/DanceDB/20131001_TheodoraTsiakka/Theodora_Happy_C3D_stageii.npz
Output file: ../robot/ik_based/pkl/007743.pkl
Robot type: unitree_g1
Processing time: 133.47 seconds

STEP-BY-STEP TIMING:
  Step 1 - Load SMPLX:        3.47s
  Step 2 - Align FPS:         10.97s
  Step 3 - Init Retarget:     0.25s
  Step 4 - Init Visualization: 0.00s
  Step 5 - Process Frames:    118.70s
  Step 6 - Convert Arrays:    0.01s
  Step 7 - Forward Kinematics: 0.05s
  Step 8 - Save Data:         0.01s
Status: SUCCESS
==================================================

=== FILE SUCCESS - 2025-10-14 13:52:37 ===
File index: 007743
File number: 681/1001
Input file: /data/retarget/locomotion/raw/AMASS_SMPLXG/DanceDB/20131001_TheodoraTsiakka/Theodora_Happy_C3D_stageii.npz
Output file: ../robot/ik_based/pkl/007743.pkl
Processing time: 133.47 seconds
Total file time: 134.99 seconds
Status: SUCCESS
==================================================

=== SUCCESS LOG - 2025-10-14 13:54:59 ===
Input file: /data/retarget/locomotion/raw/AMASS_SMPLXG/DanceDB/20131001_TheodoraTsiakka/Theodora_Miserable_C3D_stageii.npz
Output file: ../robot/ik_based/pkl/007744.pkl
Robot type: unitree_g1
Processing time: 142.22 seconds

STEP-BY-STEP TIMING:
  Step 1 - Load SMPLX:        3.89s
  Step 2 - Align FPS:         12.80s
  Step 3 - Init Retarget:     0.18s
  Step 4 - Init Visualization: 0.00s
  Step 5 - Process Frames:    125.24s
  Step 6 - Convert Arrays:    0.01s
  Step 7 - Forward Kinematics: 0.07s
  Step 8 - Save Data:         0.00s
Status: SUCCESS
==================================================
