
=== SUCCESS LOG - 2025-10-14 14:37:26 ===
Input file: /data/retarget/locomotion/raw/AMASS_SMPLXG/KIT/379/push_recovery_front07_stageii.npz
Output file: ../robot/ik_based/pkl/013004.pkl
Robot type: unitree_g1
Processing time: 95.02 seconds

STEP-BY-STEP TIMING:
  Step 1 - Load SMPLX:        4.98s
  Step 2 - Align FPS:         10.14s
  Step 3 - Init Retarget:     3.84s
  Step 4 - Init Visualization: 0.00s
  Step 5 - Process Frames:    69.69s (avg: 0.558s/frame)
  Step 6 - Convert Arrays:    0.02s
  Step 7 - Forward Kinematics: 4.01s
  Step 8 - Save Data:         0.03s
Status: SUCCESS
==================================================

=== SUCCESS LOG - 2025-10-14 14:37:30 ===
Input file: /data/retarget/locomotion/raw/AMASS_SMPLXG/KIT/379/push_recovery_front05_stageii.npz
Output file: ../robot/ik_based/pkl/013002.pkl
Robot type: unitree_g1
Processing time: 98.30 seconds

STEP-BY-STEP TIMING:
  Step 1 - Load SMPLX:        4.65s
  Step 2 - Align FPS:         11.57s
  Step 3 - Init Retarget:     3.11s
  Step 4 - Init Visualization: 0.02s
  Step 5 - Process Frames:    72.72s (avg: 0.543s/frame)
  Step 6 - Convert Arrays:    0.00s
  Step 7 - Forward Kinematics: 3.55s
  Step 8 - Save Data:         0.04s
Status: SUCCESS
==================================================

=== SUCCESS LOG - 2025-10-14 14:37:36 ===
Input file: /data/retarget/locomotion/raw/AMASS_SMPLXG/KIT/379/push_recovery_front08_stageii.npz
Output file: ../robot/ik_based/pkl/013005.pkl
Robot type: unitree_g1
Processing time: 105.00 seconds

STEP-BY-STEP TIMING:
  Step 1 - Load SMPLX:        5.04s
  Step 2 - Align FPS:         13.51s
  Step 3 - Init Retarget:     1.67s
  Step 4 - Init Visualization: 0.01s
  Step 5 - Process Frames:    80.87s (avg: 0.543s/frame)
  Step 6 - Convert Arrays:    0.00s
  Step 7 - Forward Kinematics: 2.44s
  Step 8 - Save Data:         0.01s
Status: SUCCESS
==================================================

=== SUCCESS LOG - 2025-10-14 14:37:37 ===
Input file: /data/retarget/locomotion/raw/AMASS_SMPLXG/KIT/379/push_recovery_front03_stageii.npz
Output file: ../robot/ik_based/pkl/013000.pkl
Robot type: unitree_g1
Processing time: 105.99 seconds

STEP-BY-STEP TIMING:
  Step 1 - Load SMPLX:        6.00s
  Step 2 - Align FPS:         12.38s
  Step 3 - Init Retarget:     1.96s
  Step 4 - Init Visualization: 0.01s
  Step 5 - Process Frames:    83.15s (avg: 0.554s/frame)
  Step 6 - Convert Arrays:    0.00s
  Step 7 - Forward Kinematics: 1.66s
  Step 8 - Save Data:         0.02s
Status: SUCCESS
==================================================

=== SUCCESS LOG - 2025-10-14 14:37:38 ===
Input file: /data/retarget/locomotion/raw/AMASS_SMPLXG/KIT/379/push_recovery_front06_stageii.npz
Output file: ../robot/ik_based/pkl/013003.pkl
Robot type: unitree_g1
Processing time: 106.67 seconds

STEP-BY-STEP TIMING:
  Step 1 - Load SMPLX:        5.96s
  Step 2 - Align FPS:         12.86s
  Step 3 - Init Retarget:     1.66s
  Step 4 - Init Visualization: 0.00s
  Step 5 - Process Frames:    84.04s (avg: 0.560s/frame)
  Step 6 - Convert Arrays:    0.00s
  Step 7 - Forward Kinematics: 1.11s
  Step 8 - Save Data:         0.02s
Status: SUCCESS
==================================================

=== SUCCESS LOG - 2025-10-14 14:37:38 ===
Input file: /data/retarget/locomotion/raw/AMASS_SMPLXG/KIT/379/push_recovery_front09_stageii.npz
Output file: ../robot/ik_based/pkl/013006.pkl
Robot type: unitree_g1
Processing time: 106.92 seconds

STEP-BY-STEP TIMING:
  Step 1 - Load SMPLX:        4.81s
  Step 2 - Align FPS:         12.17s
  Step 3 - Init Retarget:     2.73s
  Step 4 - Init Visualization: 0.02s
  Step 5 - Process Frames:    84.94s (avg: 0.566s/frame)
  Step 6 - Convert Arrays:    0.00s
  Step 7 - Forward Kinematics: 1.05s
  Step 8 - Save Data:         0.02s
Status: SUCCESS
==================================================

=== SUCCESS LOG - 2025-10-14 14:37:39 ===
Input file: /data/retarget/locomotion/raw/AMASS_SMPLXG/KIT/379/push_recovery_front04_stageii.npz
Output file: ../robot/ik_based/pkl/013001.pkl
Robot type: unitree_g1
Processing time: 107.28 seconds

STEP-BY-STEP TIMING:
  Step 1 - Load SMPLX:        4.78s
  Step 2 - Align FPS:         11.23s
  Step 3 - Init Retarget:     3.14s
  Step 4 - Init Visualization: 0.01s
  Step 5 - Process Frames:    86.20s (avg: 0.532s/frame)
  Step 6 - Convert Arrays:    0.01s
  Step 7 - Forward Kinematics: 0.91s
  Step 8 - Save Data:         0.02s
Status: SUCCESS
==================================================

=== SUCCESS LOG - 2025-10-14 14:37:46 ===
Input file: /data/retarget/locomotion/raw/AMASS_SMPLXG/KIT/379/push_recovery_left02_stageii.npz
Output file: ../robot/ik_based/pkl/013008.pkl
Robot type: unitree_g1
Processing time: 114.41 seconds

STEP-BY-STEP TIMING:
  Step 1 - Load SMPLX:        4.81s
  Step 2 - Align FPS:         13.00s
  Step 3 - Init Retarget:     2.38s
  Step 4 - Init Visualization: 0.01s
  Step 5 - Process Frames:    91.58s (avg: 0.523s/frame)
  Step 6 - Convert Arrays:    0.01s
  Step 7 - Forward Kinematics: 1.27s
  Step 8 - Save Data:         0.01s
Status: SUCCESS
==================================================

=== SUCCESS LOG - 2025-10-14 14:37:48 ===
Input file: /data/retarget/locomotion/raw/AMASS_SMPLXG/KIT/379/push_recovery_front10_stageii.npz
Output file: ../robot/ik_based/pkl/013007.pkl
Robot type: unitree_g1
Processing time: 117.08 seconds

STEP-BY-STEP TIMING:
  Step 1 - Load SMPLX:        5.12s
  Step 2 - Align FPS:         12.33s
  Step 3 - Init Retarget:     2.45s
  Step 4 - Init Visualization: 0.03s
  Step 5 - Process Frames:    94.24s (avg: 0.604s/frame)
  Step 6 - Convert Arrays:    0.00s
  Step 7 - Forward Kinematics: 1.04s
  Step 8 - Save Data:         0.02s
Status: SUCCESS
==================================================

=== SUCCESS LOG - 2025-10-14 14:37:58 ===
Input file: /data/retarget/locomotion/raw/AMASS_SMPLXG/KIT/379/push_recovery_left03_stageii.npz
Output file: ../robot/ik_based/pkl/013009.pkl
Robot type: unitree_g1
Processing time: 126.39 seconds

STEP-BY-STEP TIMING:
  Step 1 - Load SMPLX:        4.99s
  Step 2 - Align FPS:         11.70s
  Step 3 - Init Retarget:     3.00s
  Step 4 - Init Visualization: 0.02s
  Step 5 - Process Frames:    102.57s (avg: 0.684s/frame)
  Step 6 - Convert Arrays:    0.00s
  Step 7 - Forward Kinematics: 2.56s
  Step 8 - Save Data:         0.04s
Status: SUCCESS
==================================================

=== SUCCESS LOG - 2025-10-14 14:39:06 ===
Input file: /data/retarget/locomotion/raw/AMASS_SMPLXG/KIT/379/push_recovery_left06_stageii.npz
Output file: ../robot/ik_based/pkl/013012.pkl
Robot type: unitree_g1
Processing time: 89.64 seconds

STEP-BY-STEP TIMING:
  Step 1 - Load SMPLX:        9.37s
  Step 2 - Align FPS:         7.08s
  Step 3 - Init Retarget:     0.57s
  Step 4 - Init Visualization: 0.00s
  Step 5 - Process Frames:    68.15s (avg: 0.545s/frame)
  Step 6 - Convert Arrays:    0.01s
  Step 7 - Forward Kinematics: 2.68s
  Step 8 - Save Data:         0.04s
Status: SUCCESS
==================================================

=== SUCCESS LOG - 2025-10-14 14:39:09 ===
Input file: /data/retarget/locomotion/raw/AMASS_SMPLXG/KIT/379/push_recovery_left10_stageii.npz
Output file: ../robot/ik_based/pkl/013016.pkl
Robot type: unitree_g1
Processing time: 90.10 seconds

STEP-BY-STEP TIMING:
  Step 1 - Load SMPLX:        11.19s
  Step 2 - Align FPS:         5.35s
  Step 3 - Init Retarget:     1.50s
  Step 4 - Init Visualization: 0.03s
  Step 5 - Process Frames:    67.28s (avg: 0.538s/frame)
  Step 6 - Convert Arrays:    0.02s
  Step 7 - Forward Kinematics: 2.69s
  Step 8 - Save Data:         0.03s
Status: SUCCESS
==================================================

=== SUCCESS LOG - 2025-10-14 14:39:10 ===
Input file: /data/retarget/locomotion/raw/AMASS_SMPLXG/KIT/379/push_recovery_left04_stageii.npz
Output file: ../robot/ik_based/pkl/013010.pkl
Robot type: unitree_g1
Processing time: 103.05 seconds

STEP-BY-STEP TIMING:
  Step 1 - Load SMPLX:        13.79s
  Step 2 - Align FPS:         4.31s
  Step 3 - Init Retarget:     0.51s
  Step 4 - Init Visualization: 0.00s
  Step 5 - Process Frames:    79.61s (avg: 0.531s/frame)
  Step 6 - Convert Arrays:    0.00s
  Step 7 - Forward Kinematics: 2.52s
  Step 8 - Save Data:         0.04s
Status: SUCCESS
==================================================

=== SUCCESS LOG - 2025-10-14 14:39:17 ===
Input file: /data/retarget/locomotion/raw/AMASS_SMPLXG/KIT/379/push_recovery_left05_stageii.npz
Output file: ../robot/ik_based/pkl/013011.pkl
Robot type: unitree_g1
Processing time: 106.48 seconds

STEP-BY-STEP TIMING:
  Step 1 - Load SMPLX:        11.60s
  Step 2 - Align FPS:         5.17s
  Step 3 - Init Retarget:     0.48s
  Step 4 - Init Visualization: 0.01s
  Step 5 - Process Frames:    85.99s (avg: 0.531s/frame)
  Step 6 - Convert Arrays:    0.00s
  Step 7 - Forward Kinematics: 1.92s
  Step 8 - Save Data:         0.02s
Status: SUCCESS
==================================================

=== SUCCESS LOG - 2025-10-14 14:39:17 ===
Input file: /data/retarget/locomotion/raw/AMASS_SMPLXG/KIT/379/push_recovery_left08_stageii.npz
Output file: ../robot/ik_based/pkl/013014.pkl
Robot type: unitree_g1
Processing time: 98.91 seconds

STEP-BY-STEP TIMING:
  Step 1 - Load SMPLX:        10.41s
  Step 2 - Align FPS:         6.24s
  Step 3 - Init Retarget:     1.22s
  Step 4 - Init Visualization: 0.01s
  Step 5 - Process Frames:    77.88s (avg: 0.541s/frame)
  Step 6 - Convert Arrays:    0.00s
  Step 7 - Forward Kinematics: 1.85s
  Step 8 - Save Data:         0.02s
Status: SUCCESS
==================================================

=== SUCCESS LOG - 2025-10-14 14:39:19 ===
Input file: /data/retarget/locomotion/raw/AMASS_SMPLXG/KIT/379/push_recovery_left07_stageii.npz
Output file: ../robot/ik_based/pkl/013013.pkl
Robot type: unitree_g1
Processing time: 100.96 seconds

STEP-BY-STEP TIMING:
  Step 1 - Load SMPLX:        9.90s
  Step 2 - Align FPS:         7.01s
  Step 3 - Init Retarget:     1.03s
  Step 4 - Init Visualization: 0.01s
  Step 5 - Process Frames:    80.82s (avg: 0.539s/frame)
  Step 6 - Convert Arrays:    0.00s
  Step 7 - Forward Kinematics: 1.44s
  Step 8 - Save Data:         0.02s
Status: SUCCESS
==================================================

=== SUCCESS LOG - 2025-10-14 14:39:19 ===
Input file: /data/retarget/locomotion/raw/AMASS_SMPLXG/KIT/379/push_recovery_left09_stageii.npz
Output file: ../robot/ik_based/pkl/013015.pkl
Robot type: unitree_g1
Processing time: 100.39 seconds

STEP-BY-STEP TIMING:
  Step 1 - Load SMPLX:        10.87s
  Step 2 - Align FPS:         6.59s
  Step 3 - Init Retarget:     1.08s
  Step 4 - Init Visualization: 0.00s
  Step 5 - Process Frames:    80.04s (avg: 0.513s/frame)
  Step 6 - Convert Arrays:    0.00s
  Step 7 - Forward Kinematics: 1.11s
  Step 8 - Save Data:         0.01s
Status: SUCCESS
==================================================

=== SUCCESS LOG - 2025-10-14 14:39:19 ===
Input file: /data/retarget/locomotion/raw/AMASS_SMPLXG/KIT/379/push_recovery_right02_stageii.npz
Output file: ../robot/ik_based/pkl/013017.pkl
Robot type: unitree_g1
Processing time: 93.27 seconds

STEP-BY-STEP TIMING:
  Step 1 - Load SMPLX:        18.71s
  Step 2 - Align FPS:         7.23s
  Step 3 - Init Retarget:     0.77s
  Step 4 - Init Visualization: 0.01s
  Step 5 - Process Frames:    65.51s (avg: 0.520s/frame)
  Step 6 - Convert Arrays:    0.00s
  Step 7 - Forward Kinematics: 0.72s
  Step 8 - Save Data:         0.01s
Status: SUCCESS
==================================================

=== SUCCESS LOG - 2025-10-14 14:39:20 ===
Input file: /data/retarget/locomotion/raw/AMASS_SMPLXG/KIT/379/push_recovery_right04_stageii.npz
Output file: ../robot/ik_based/pkl/013019.pkl
Robot type: unitree_g1
Processing time: 81.56 seconds

STEP-BY-STEP TIMING:
  Step 1 - Load SMPLX:        21.47s
  Step 2 - Align FPS:         3.34s
  Step 3 - Init Retarget:     0.76s
  Step 4 - Init Visualization: 0.00s
  Step 5 - Process Frames:    55.22s (avg: 0.464s/frame)
  Step 6 - Convert Arrays:    0.00s
  Step 7 - Forward Kinematics: 0.31s
  Step 8 - Save Data:         0.01s
Status: SUCCESS
==================================================

=== SUCCESS LOG - 2025-10-14 14:39:29 ===
Input file: /data/retarget/locomotion/raw/AMASS_SMPLXG/KIT/379/push_recovery_right03_stageii.npz
Output file: ../robot/ik_based/pkl/013018.pkl
Robot type: unitree_g1
Processing time: 99.72 seconds

STEP-BY-STEP TIMING:
  Step 1 - Load SMPLX:        18.97s
  Step 2 - Align FPS:         8.37s
  Step 3 - Init Retarget:     0.72s
  Step 4 - Init Visualization: 0.00s
  Step 5 - Process Frames:    68.44s (avg: 0.456s/frame)
  Step 6 - Convert Arrays:    0.00s
  Step 7 - Forward Kinematics: 1.42s
  Step 8 - Save Data:         0.04s
Status: SUCCESS
==================================================

=== SUCCESS LOG - 2025-10-14 14:40:22 ===
Input file: /data/retarget/locomotion/raw/AMASS_SMPLXG/KIT/379/push_recovery_stand_back02_stageii.npz
Output file: ../robot/ik_based/pkl/013028.pkl
Robot type: unitree_g1
Processing time: 61.65 seconds

STEP-BY-STEP TIMING:
  Step 1 - Load SMPLX:        14.83s
  Step 2 - Align FPS:         2.20s
  Step 3 - Init Retarget:     0.70s
  Step 4 - Init Visualization: 0.03s
  Step 5 - Process Frames:    37.24s (avg: 0.428s/frame)
  Step 6 - Convert Arrays:    0.00s
  Step 7 - Forward Kinematics: 3.56s
  Step 8 - Save Data:         0.06s
Status: SUCCESS
==================================================

=== SUCCESS LOG - 2025-10-14 14:40:24 ===
Input file: /data/retarget/locomotion/raw/AMASS_SMPLXG/KIT/379/push_recovery_stand_back01_stageii.npz
Output file: ../robot/ik_based/pkl/013027.pkl
Robot type: unitree_g1
Processing time: 64.35 seconds

STEP-BY-STEP TIMING:
  Step 1 - Load SMPLX:        12.32s
  Step 2 - Align FPS:         3.96s
  Step 3 - Init Retarget:     1.25s
  Step 4 - Init Visualization: 0.01s
  Step 5 - Process Frames:    40.50s (avg: 0.405s/frame)
  Step 6 - Convert Arrays:    0.00s
  Step 7 - Forward Kinematics: 3.50s
  Step 8 - Save Data:         0.07s
Status: SUCCESS
==================================================

=== SUCCESS LOG - 2025-10-14 14:40:35 ===
Input file: /data/retarget/locomotion/raw/AMASS_SMPLXG/KIT/379/push_recovery_stand_back03_stageii.npz
Output file: ../robot/ik_based/pkl/013029.pkl
Robot type: unitree_g1
Processing time: 64.95 seconds

STEP-BY-STEP TIMING:
  Step 1 - Load SMPLX:        24.62s
  Step 2 - Align FPS:         2.66s
  Step 3 - Init Retarget:     0.71s
  Step 4 - Init Visualization: 0.00s
  Step 5 - Process Frames:    32.51s (avg: 0.434s/frame)
  Step 6 - Convert Arrays:    0.00s
  Step 7 - Forward Kinematics: 2.50s
  Step 8 - Save Data:         0.04s
Status: SUCCESS
==================================================

=== SUCCESS LOG - 2025-10-14 14:40:35 ===
Input file: /data/retarget/locomotion/raw/AMASS_SMPLXG/KIT/379/push_recovery_right05_stageii.npz
Output file: ../robot/ik_based/pkl/013020.pkl
Robot type: unitree_g1
Processing time: 88.51 seconds

STEP-BY-STEP TIMING:
  Step 1 - Load SMPLX:        13.03s
  Step 2 - Align FPS:         4.07s
  Step 3 - Init Retarget:     0.37s
  Step 4 - Init Visualization: 0.00s
  Step 5 - Process Frames:    66.68s (avg: 0.445s/frame)
  Step 6 - Convert Arrays:    0.00s
  Step 7 - Forward Kinematics: 2.45s
  Step 8 - Save Data:         0.04s
Status: SUCCESS
==================================================

=== SUCCESS LOG - 2025-10-14 14:40:36 ===
Input file: /data/retarget/locomotion/raw/AMASS_SMPLXG/KIT/379/push_recovery_right09_stageii.npz
Output file: ../robot/ik_based/pkl/013024.pkl
Robot type: unitree_g1
Processing time: 78.22 seconds

STEP-BY-STEP TIMING:
  Step 1 - Load SMPLX:        8.44s
  Step 2 - Align FPS:         4.25s
  Step 3 - Init Retarget:     0.65s
  Step 4 - Init Visualization: 0.00s
  Step 5 - Process Frames:    61.24s (avg: 0.547s/frame)
  Step 6 - Convert Arrays:    0.00s
  Step 7 - Forward Kinematics: 1.79s
  Step 8 - Save Data:         0.02s
Status: SUCCESS
==================================================

=== SUCCESS LOG - 2025-10-14 14:40:38 ===
Input file: /data/retarget/locomotion/raw/AMASS_SMPLXG/KIT/379/push_recovery_right07_stageii.npz
Output file: ../robot/ik_based/pkl/013022.pkl
Robot type: unitree_g1
Processing time: 87.75 seconds

STEP-BY-STEP TIMING:
  Step 1 - Load SMPLX:        10.15s
  Step 2 - Align FPS:         4.00s
  Step 3 - Init Retarget:     0.47s
  Step 4 - Init Visualization: 0.00s
  Step 5 - Process Frames:    71.15s (avg: 0.474s/frame)
  Step 6 - Convert Arrays:    0.00s
  Step 7 - Forward Kinematics: 1.16s
  Step 8 - Save Data:         0.03s
Status: SUCCESS
==================================================

=== SUCCESS LOG - 2025-10-14 14:40:40 ===
Input file: /data/retarget/locomotion/raw/AMASS_SMPLXG/KIT/379/push_recovery_right10_stageii.npz
Output file: ../robot/ik_based/pkl/013025.pkl
Robot type: unitree_g1
Processing time: 81.05 seconds

STEP-BY-STEP TIMING:
  Step 1 - Load SMPLX:        8.71s
  Step 2 - Align FPS:         5.27s
  Step 3 - Init Retarget:     0.75s
  Step 4 - Init Visualization: 0.00s
  Step 5 - Process Frames:    63.93s (avg: 0.511s/frame)
  Step 6 - Convert Arrays:    0.00s
  Step 7 - Forward Kinematics: 1.10s
  Step 8 - Save Data:         0.02s
Status: SUCCESS
==================================================

=== SUCCESS LOG - 2025-10-14 14:40:42 ===
Input file: /data/retarget/locomotion/raw/AMASS_SMPLXG/KIT/379/push_recovery_right11_stageii.npz
Output file: ../robot/ik_based/pkl/013026.pkl
Robot type: unitree_g1
Processing time: 82.78 seconds

STEP-BY-STEP TIMING:
  Step 1 - Load SMPLX:        9.41s
  Step 2 - Align FPS:         6.89s
  Step 3 - Init Retarget:     1.19s
  Step 4 - Init Visualization: 0.02s
  Step 5 - Process Frames:    62.68s (avg: 0.501s/frame)
  Step 6 - Convert Arrays:    0.00s
  Step 7 - Forward Kinematics: 1.57s
  Step 8 - Save Data:         0.02s
Status: SUCCESS
==================================================

=== SUCCESS LOG - 2025-10-14 14:40:44 ===
Input file: /data/retarget/locomotion/raw/AMASS_SMPLXG/KIT/379/push_recovery_right08_stageii.npz
Output file: ../robot/ik_based/pkl/013023.pkl
Robot type: unitree_g1
Processing time: 86.52 seconds

STEP-BY-STEP TIMING:
  Step 1 - Load SMPLX:        8.48s
  Step 2 - Align FPS:         7.64s
  Step 3 - Init Retarget:     0.63s
  Step 4 - Init Visualization: 0.00s
  Step 5 - Process Frames:    68.26s (avg: 0.455s/frame)
  Step 6 - Convert Arrays:    0.00s
  Step 7 - Forward Kinematics: 0.77s
  Step 8 - Save Data:         0.02s
Status: SUCCESS
==================================================

=== SUCCESS LOG - 2025-10-14 14:40:46 ===
Input file: /data/retarget/locomotion/raw/AMASS_SMPLXG/KIT/379/push_recovery_right06_stageii.npz
Output file: ../robot/ik_based/pkl/013021.pkl
Robot type: unitree_g1
Processing time: 96.15 seconds

STEP-BY-STEP TIMING:
  Step 1 - Load SMPLX:        10.89s
  Step 2 - Align FPS:         4.78s
  Step 3 - Init Retarget:     0.38s
  Step 4 - Init Visualization: 0.00s
  Step 5 - Process Frames:    78.08s (avg: 0.446s/frame)
  Step 6 - Convert Arrays:    0.00s
  Step 7 - Forward Kinematics: 0.67s
  Step 8 - Save Data:         0.19s
Status: SUCCESS
==================================================

=== SUCCESS LOG - 2025-10-14 14:41:11 ===
Input file: /data/retarget/locomotion/raw/AMASS_SMPLXG/KIT/379/push_recovery_stand_back05_stageii.npz
Output file: ../robot/ik_based/pkl/013031.pkl
Robot type: unitree_g1
Processing time: 46.34 seconds

STEP-BY-STEP TIMING:
  Step 1 - Load SMPLX:        15.36s
  Step 2 - Align FPS:         1.25s
  Step 3 - Init Retarget:     0.34s
  Step 4 - Init Visualization: 0.00s
  Step 5 - Process Frames:    23.02s (avg: 0.365s/frame)
  Step 6 - Convert Arrays:    0.01s
  Step 7 - Forward Kinematics: 3.03s
  Step 8 - Save Data:         0.04s
Status: SUCCESS
==================================================

=== SUCCESS LOG - 2025-10-14 14:41:16 ===
Input file: /data/retarget/locomotion/raw/AMASS_SMPLXG/KIT/379/push_recovery_stand_back04_stageii.npz
Output file: ../robot/ik_based/pkl/013030.pkl
Robot type: unitree_g1
Processing time: 53.78 seconds

STEP-BY-STEP TIMING:
  Step 1 - Load SMPLX:        16.08s
  Step 2 - Align FPS:         2.14s
  Step 3 - Init Retarget:     0.48s
  Step 4 - Init Visualization: 0.00s
  Step 5 - Process Frames:    29.57s (avg: 0.340s/frame)
  Step 6 - Convert Arrays:    0.02s
  Step 7 - Forward Kinematics: 3.32s
  Step 8 - Save Data:         0.08s
Status: SUCCESS
==================================================

=== SUCCESS LOG - 2025-10-14 14:41:22 ===
Input file: /data/retarget/locomotion/raw/AMASS_SMPLXG/KIT/379/push_recovery_stand_back07_stageii.npz
Output file: ../robot/ik_based/pkl/013033.pkl
Robot type: unitree_g1
Processing time: 45.71 seconds

STEP-BY-STEP TIMING:
  Step 1 - Load SMPLX:        8.92s
  Step 2 - Align FPS:         1.63s
  Step 3 - Init Retarget:     0.73s
  Step 4 - Init Visualization: 0.00s
  Step 5 - Process Frames:    30.85s (avg: 0.411s/frame)
  Step 6 - Convert Arrays:    0.00s
  Step 7 - Forward Kinematics: 2.10s
  Step 8 - Save Data:         0.05s
Status: SUCCESS
==================================================

=== SUCCESS LOG - 2025-10-14 14:41:23 ===
Input file: /data/retarget/locomotion/raw/AMASS_SMPLXG/KIT/379/push_recovery_stand_back08_stageii.npz
Output file: ../robot/ik_based/pkl/013034.pkl
Robot type: unitree_g1
Processing time: 46.26 seconds

STEP-BY-STEP TIMING:
  Step 1 - Load SMPLX:        9.06s
  Step 2 - Align FPS:         1.70s
  Step 3 - Init Retarget:     0.36s
  Step 4 - Init Visualization: 0.00s
  Step 5 - Process Frames:    31.72s (avg: 0.423s/frame)
  Step 6 - Convert Arrays:    0.00s
  Step 7 - Forward Kinematics: 1.68s
  Step 8 - Save Data:         0.02s
Status: SUCCESS
==================================================

=== SUCCESS LOG - 2025-10-14 14:41:26 ===
Input file: /data/retarget/locomotion/raw/AMASS_SMPLXG/KIT/379/push_recovery_stand_back09_stageii.npz
Output file: ../robot/ik_based/pkl/013035.pkl
Robot type: unitree_g1
Processing time: 47.23 seconds

STEP-BY-STEP TIMING:
  Step 1 - Load SMPLX:        10.25s
  Step 2 - Align FPS:         2.26s
  Step 3 - Init Retarget:     0.54s
  Step 4 - Init Visualization: 0.00s
  Step 5 - Process Frames:    30.81s (avg: 0.411s/frame)
  Step 6 - Convert Arrays:    0.01s
  Step 7 - Forward Kinematics: 1.67s
  Step 8 - Save Data:         0.05s
Status: SUCCESS
==================================================

=== SUCCESS LOG - 2025-10-14 14:41:35 ===
Input file: /data/retarget/locomotion/raw/AMASS_SMPLXG/KIT/379/push_recovery_stand_back06_stageii.npz
Output file: ../robot/ik_based/pkl/013032.pkl
Robot type: unitree_g1
Processing time: 59.82 seconds

STEP-BY-STEP TIMING:
  Step 1 - Load SMPLX:        9.24s
  Step 2 - Align FPS:         2.85s
  Step 3 - Init Retarget:     0.39s
  Step 4 - Init Visualization: 0.00s
  Step 5 - Process Frames:    43.70s (avg: 0.633s/frame)
  Step 6 - Convert Arrays:    0.00s
  Step 7 - Forward Kinematics: 2.06s
  Step 8 - Save Data:         0.03s
Status: SUCCESS
==================================================

=== SUCCESS LOG - 2025-10-14 14:41:36 ===
Input file: /data/retarget/locomotion/raw/AMASS_SMPLXG/KIT/379/push_recovery_stand_back10_stageii.npz
Output file: ../robot/ik_based/pkl/013036.pkl
Robot type: unitree_g1
Processing time: 55.85 seconds

STEP-BY-STEP TIMING:
  Step 1 - Load SMPLX:        10.25s
  Step 2 - Align FPS:         1.96s
  Step 3 - Init Retarget:     0.45s
  Step 4 - Init Visualization: 0.00s
  Step 5 - Process Frames:    40.09s (avg: 0.617s/frame)
  Step 6 - Convert Arrays:    0.00s
  Step 7 - Forward Kinematics: 1.63s
  Step 8 - Save Data:         0.02s
Status: SUCCESS
==================================================

=== SUCCESS LOG - 2025-10-14 14:41:40 ===
Input file: /data/retarget/locomotion/raw/AMASS_SMPLXG/KIT/379/push_recovery_stand_front01_stageii.npz
Output file: ../robot/ik_based/pkl/013037.pkl
Robot type: unitree_g1
Processing time: 57.59 seconds

STEP-BY-STEP TIMING:
  Step 1 - Load SMPLX:        12.47s
  Step 2 - Align FPS:         3.27s
  Step 3 - Init Retarget:     0.66s
  Step 4 - Init Visualization: 0.00s
  Step 5 - Process Frames:    36.89s (avg: 0.424s/frame)
  Step 6 - Convert Arrays:    0.00s
  Step 7 - Forward Kinematics: 2.06s
  Step 8 - Save Data:         0.02s
Status: SUCCESS
==================================================

=== SUCCESS LOG - 2025-10-14 14:41:45 ===
Input file: /data/retarget/locomotion/raw/AMASS_SMPLXG/KIT/379/push_recovery_stand_front04_stageii.npz
Output file: ../robot/ik_based/pkl/013039.pkl
Robot type: unitree_g1
Processing time: 57.85 seconds

STEP-BY-STEP TIMING:
  Step 1 - Load SMPLX:        19.10s
  Step 2 - Align FPS:         2.84s
  Step 3 - Init Retarget:     0.58s
  Step 4 - Init Visualization: 0.00s
  Step 5 - Process Frames:    31.92s (avg: 0.394s/frame)
  Step 6 - Convert Arrays:    0.00s
  Step 7 - Forward Kinematics: 1.73s
  Step 8 - Save Data:         0.05s
Status: SUCCESS
==================================================

=== SUCCESS LOG - 2025-10-14 14:42:10 ===
Input file: /data/retarget/locomotion/raw/AMASS_SMPLXG/KIT/379/push_recovery_stand_front02_stageii.npz
Output file: ../robot/ik_based/pkl/013038.pkl
Robot type: unitree_g1
Processing time: 85.85 seconds

STEP-BY-STEP TIMING:
  Step 1 - Load SMPLX:        14.41s
  Step 2 - Align FPS:         3.11s
  Step 3 - Init Retarget:     0.73s
  Step 4 - Init Visualization: 0.00s
  Step 5 - Process Frames:    61.77s (avg: 0.710s/frame)
  Step 6 - Convert Arrays:    0.01s
  Step 7 - Forward Kinematics: 3.36s
  Step 8 - Save Data:         0.02s
Status: SUCCESS
==================================================

=== SUCCESS LOG - 2025-10-14 14:42:11 ===
Input file: /data/retarget/locomotion/raw/AMASS_SMPLXG/KIT/379/push_recovery_stand_front05_stageii.npz
Output file: ../robot/ik_based/pkl/013040.pkl
Robot type: unitree_g1
Processing time: 59.02 seconds

STEP-BY-STEP TIMING:
  Step 1 - Load SMPLX:        16.26s
  Step 2 - Align FPS:         1.94s
  Step 3 - Init Retarget:     0.62s
  Step 4 - Init Visualization: 0.00s
  Step 5 - Process Frames:    34.56s (avg: 0.461s/frame)
  Step 6 - Convert Arrays:    0.01s
  Step 7 - Forward Kinematics: 2.90s
  Step 8 - Save Data:         0.04s
Status: SUCCESS
==================================================

=== SUCCESS LOG - 2025-10-14 14:42:19 ===
Input file: /data/retarget/locomotion/raw/AMASS_SMPLXG/KIT/379/push_recovery_stand_front07_stageii.npz
Output file: ../robot/ik_based/pkl/013042.pkl
Robot type: unitree_g1
Processing time: 57.00 seconds

STEP-BY-STEP TIMING:
  Step 1 - Load SMPLX:        13.43s
  Step 2 - Align FPS:         2.30s
  Step 3 - Init Retarget:     0.54s
  Step 4 - Init Visualization: 0.00s
  Step 5 - Process Frames:    37.43s (avg: 0.430s/frame)
  Step 6 - Convert Arrays:    0.01s
  Step 7 - Forward Kinematics: 2.09s
  Step 8 - Save Data:         0.04s
Status: SUCCESS
==================================================

=== SUCCESS LOG - 2025-10-14 14:42:20 ===
Input file: /data/retarget/locomotion/raw/AMASS_SMPLXG/KIT/379/push_recovery_stand_front09_stageii.npz
Output file: ../robot/ik_based/pkl/013044.pkl
Robot type: unitree_g1
Processing time: 53.44 seconds

STEP-BY-STEP TIMING:
  Step 1 - Load SMPLX:        14.80s
  Step 2 - Align FPS:         2.35s
  Step 3 - Init Retarget:     0.62s
  Step 4 - Init Visualization: 0.00s
  Step 5 - Process Frames:    31.98s (avg: 0.426s/frame)
  Step 6 - Convert Arrays:    0.00s
  Step 7 - Forward Kinematics: 2.12s
  Step 8 - Save Data:         0.03s
Status: SUCCESS
==================================================

=== SUCCESS LOG - 2025-10-14 14:42:21 ===
Input file: /data/retarget/locomotion/raw/AMASS_SMPLXG/KIT/379/push_recovery_stand_front08_stageii.npz
Output file: ../robot/ik_based/pkl/013043.pkl
Robot type: unitree_g1
Processing time: 58.09 seconds

STEP-BY-STEP TIMING:
  Step 1 - Load SMPLX:        13.80s
  Step 2 - Align FPS:         2.51s
  Step 3 - Init Retarget:     0.71s
  Step 4 - Init Visualization: 0.00s
  Step 5 - Process Frames:    37.48s (avg: 0.431s/frame)
  Step 6 - Convert Arrays:    0.00s
  Step 7 - Forward Kinematics: 1.87s
  Step 8 - Save Data:         0.03s
Status: SUCCESS
==================================================

=== SUCCESS LOG - 2025-10-14 14:42:24 ===
Input file: /data/retarget/locomotion/raw/AMASS_SMPLXG/KIT/379/push_recovery_stand_front06_stageii.npz
Output file: ../robot/ik_based/pkl/013041.pkl
Robot type: unitree_g1
Processing time: 67.19 seconds

STEP-BY-STEP TIMING:
  Step 1 - Load SMPLX:        13.89s
  Step 2 - Align FPS:         3.26s
  Step 3 - Init Retarget:     0.48s
  Step 4 - Init Visualization: 0.00s
  Step 5 - Process Frames:    47.28s (avg: 0.397s/frame)
  Step 6 - Convert Arrays:    0.00s
  Step 7 - Forward Kinematics: 1.25s
  Step 8 - Save Data:         0.01s
Status: SUCCESS
==================================================

=== SUCCESS LOG - 2025-10-14 14:42:26 ===
Input file: /data/retarget/locomotion/raw/AMASS_SMPLXG/KIT/379/push_recovery_stand_front10_stageii.npz
Output file: ../robot/ik_based/pkl/013045.pkl
Robot type: unitree_g1
Processing time: 50.82 seconds

STEP-BY-STEP TIMING:
  Step 1 - Load SMPLX:        15.36s
  Step 2 - Align FPS:         1.91s
  Step 3 - Init Retarget:     0.62s
  Step 4 - Init Visualization: 0.00s
  Step 5 - Process Frames:    30.47s (avg: 0.406s/frame)
  Step 6 - Convert Arrays:    0.00s
  Step 7 - Forward Kinematics: 1.00s
  Step 8 - Save Data:         0.07s
Status: SUCCESS
==================================================

=== SUCCESS LOG - 2025-10-14 14:42:37 ===
Input file: /data/retarget/locomotion/raw/AMASS_SMPLXG/KIT/379/push_recovery_stand_left02_stageii.npz
Output file: ../robot/ik_based/pkl/013047.pkl
Robot type: unitree_g1
Processing time: 56.50 seconds

STEP-BY-STEP TIMING:
  Step 1 - Load SMPLX:        17.71s
  Step 2 - Align FPS:         3.02s
  Step 3 - Init Retarget:     0.61s
  Step 4 - Init Visualization: 0.01s
  Step 5 - Process Frames:    30.58s (avg: 0.306s/frame)
  Step 6 - Convert Arrays:    0.00s
  Step 7 - Forward Kinematics: 2.19s
  Step 8 - Save Data:         0.04s
Status: SUCCESS
==================================================

=== SUCCESS LOG - 2025-10-14 14:42:48 ===
Input file: /data/retarget/locomotion/raw/AMASS_SMPLXG/KIT/379/push_recovery_stand_left01_stageii.npz
Output file: ../robot/ik_based/pkl/013046.pkl
Robot type: unitree_g1
Processing time: 71.83 seconds

STEP-BY-STEP TIMING:
  Step 1 - Load SMPLX:        16.08s
  Step 2 - Align FPS:         3.82s
  Step 3 - Init Retarget:     0.63s
  Step 4 - Init Visualization: 0.01s
  Step 5 - Process Frames:    46.07s (avg: 0.411s/frame)
  Step 6 - Convert Arrays:    0.00s
  Step 7 - Forward Kinematics: 2.85s
  Step 8 - Save Data:         0.07s
Status: SUCCESS
==================================================

=== SUCCESS LOG - 2025-10-14 14:42:51 ===
Input file: /data/retarget/locomotion/raw/AMASS_SMPLXG/KIT/379/push_recovery_stand_left03_stageii.npz
Output file: ../robot/ik_based/pkl/013048.pkl
Robot type: unitree_g1
Processing time: 66.31 seconds

STEP-BY-STEP TIMING:
  Step 1 - Load SMPLX:        20.66s
  Step 2 - Align FPS:         4.02s
  Step 3 - Init Retarget:     0.60s
  Step 4 - Init Visualization: 0.00s
  Step 5 - Process Frames:    36.82s (avg: 0.368s/frame)
  Step 6 - Convert Arrays:    0.01s
  Step 7 - Forward Kinematics: 2.37s
  Step 8 - Save Data:         0.01s
Status: SUCCESS
==================================================

=== SUCCESS LOG - 2025-10-14 14:43:03 ===
Input file: /data/retarget/locomotion/raw/AMASS_SMPLXG/KIT/379/push_recovery_stand_left05_stageii.npz
Output file: ../robot/ik_based/pkl/013050.pkl
Robot type: unitree_g1
Processing time: 51.56 seconds

STEP-BY-STEP TIMING:
  Step 1 - Load SMPLX:        13.96s
  Step 2 - Align FPS:         2.67s
  Step 3 - Init Retarget:     0.37s
  Step 4 - Init Visualization: 0.00s
  Step 5 - Process Frames:    30.07s (avg: 0.346s/frame)
  Step 6 - Convert Arrays:    0.00s
  Step 7 - Forward Kinematics: 2.12s
  Step 8 - Save Data:         0.03s
Status: SUCCESS
==================================================

=== SUCCESS LOG - 2025-10-14 14:43:13 ===
Input file: /data/retarget/locomotion/raw/AMASS_SMPLXG/KIT/379/push_recovery_stand_left08_stageii.npz
Output file: ../robot/ik_based/pkl/013053.pkl
Robot type: unitree_g1
Processing time: 51.47 seconds

STEP-BY-STEP TIMING:
  Step 1 - Load SMPLX:        12.42s
  Step 2 - Align FPS:         3.21s
  Step 3 - Init Retarget:     0.63s
  Step 4 - Init Visualization: 0.01s
  Step 5 - Process Frames:    31.28s (avg: 0.417s/frame)
  Step 6 - Convert Arrays:    0.01s
  Step 7 - Forward Kinematics: 2.35s
  Step 8 - Save Data:         0.01s
Status: SUCCESS
==================================================

=== SUCCESS LOG - 2025-10-14 14:43:13 ===
Input file: /data/retarget/locomotion/raw/AMASS_SMPLXG/KIT/379/push_recovery_stand_left04_stageii.npz
Output file: ../robot/ik_based/pkl/013049.pkl
Robot type: unitree_g1
Processing time: 62.97 seconds

STEP-BY-STEP TIMING:
  Step 1 - Load SMPLX:        14.39s
  Step 2 - Align FPS:         2.43s
  Step 3 - Init Retarget:     0.66s
  Step 4 - Init Visualization: 0.00s
  Step 5 - Process Frames:    41.58s (avg: 0.371s/frame)
  Step 6 - Convert Arrays:    0.00s
  Step 7 - Forward Kinematics: 2.16s
  Step 8 - Save Data:         0.02s
Status: SUCCESS
==================================================

=== SUCCESS LOG - 2025-10-14 14:43:15 ===
Input file: /data/retarget/locomotion/raw/AMASS_SMPLXG/KIT/379/push_recovery_stand_left07_stageii.npz
Output file: ../robot/ik_based/pkl/013052.pkl
Robot type: unitree_g1
Processing time: 54.38 seconds

STEP-BY-STEP TIMING:
  Step 1 - Load SMPLX:        12.07s
  Step 2 - Align FPS:         3.63s
  Step 3 - Init Retarget:     0.60s
  Step 4 - Init Visualization: 0.00s
  Step 5 - Process Frames:    34.42s (avg: 0.396s/frame)
  Step 6 - Convert Arrays:    0.00s
  Step 7 - Forward Kinematics: 2.22s
  Step 8 - Save Data:         0.02s
Status: SUCCESS
==================================================

=== SUCCESS LOG - 2025-10-14 14:43:15 ===
Input file: /data/retarget/locomotion/raw/AMASS_SMPLXG/KIT/379/push_recovery_stand_left06_stageii.npz
Output file: ../robot/ik_based/pkl/013051.pkl
Robot type: unitree_g1
Processing time: 55.60 seconds

STEP-BY-STEP TIMING:
  Step 1 - Load SMPLX:        12.68s
  Step 2 - Align FPS:         2.62s
  Step 3 - Init Retarget:     0.59s
  Step 4 - Init Visualization: 0.00s
  Step 5 - Process Frames:    36.65s (avg: 0.421s/frame)
  Step 6 - Convert Arrays:    0.00s
  Step 7 - Forward Kinematics: 1.63s
  Step 8 - Save Data:         0.03s
Status: SUCCESS
==================================================

=== SUCCESS LOG - 2025-10-14 14:43:18 ===
Input file: /data/retarget/locomotion/raw/AMASS_SMPLXG/KIT/379/push_recovery_stand_left10_stageii.npz
Output file: ../robot/ik_based/pkl/013055.pkl
Robot type: unitree_g1
Processing time: 51.57 seconds

STEP-BY-STEP TIMING:
  Step 1 - Load SMPLX:        16.99s
  Step 2 - Align FPS:         3.08s
  Step 3 - Init Retarget:     0.63s
  Step 4 - Init Visualization: 0.00s
  Step 5 - Process Frames:    28.24s (avg: 0.409s/frame)
  Step 6 - Convert Arrays:    0.00s
  Step 7 - Forward Kinematics: 1.08s
  Step 8 - Save Data:         0.01s
Status: SUCCESS
==================================================

=== SUCCESS LOG - 2025-10-14 14:43:21 ===
Input file: /data/retarget/locomotion/raw/AMASS_SMPLXG/KIT/379/push_recovery_stand_left09_stageii.npz
Output file: ../robot/ik_based/pkl/013054.pkl
Robot type: unitree_g1
Processing time: 56.46 seconds

STEP-BY-STEP TIMING:
  Step 1 - Load SMPLX:        14.09s
  Step 2 - Align FPS:         2.47s
  Step 3 - Init Retarget:     0.55s
  Step 4 - Init Visualization: 0.00s
  Step 5 - Process Frames:    36.86s (avg: 0.380s/frame)
  Step 6 - Convert Arrays:    0.00s
  Step 7 - Forward Kinematics: 1.47s
  Step 8 - Save Data:         0.02s
Status: SUCCESS
==================================================

=== SUCCESS LOG - 2025-10-14 14:43:43 ===
Input file: /data/retarget/locomotion/raw/AMASS_SMPLXG/KIT/379/push_recovery_stand_right02_stageii.npz
Output file: ../robot/ik_based/pkl/013057.pkl
Robot type: unitree_g1
Processing time: 54.15 seconds

STEP-BY-STEP TIMING:
  Step 1 - Load SMPLX:        19.36s
  Step 2 - Align FPS:         2.24s
  Step 3 - Init Retarget:     0.50s
  Step 4 - Init Visualization: 0.01s
  Step 5 - Process Frames:    25.73s (avg: 0.296s/frame)
  Step 6 - Convert Arrays:    0.00s
  Step 7 - Forward Kinematics: 2.82s
  Step 8 - Save Data:         0.05s
Status: SUCCESS
==================================================

=== SUCCESS LOG - 2025-10-14 14:43:47 ===
Input file: /data/retarget/locomotion/raw/AMASS_SMPLXG/KIT/379/push_recovery_stand_right03_stageii.npz
Output file: ../robot/ik_based/pkl/013058.pkl
Robot type: unitree_g1
Processing time: 55.48 seconds

STEP-BY-STEP TIMING:
  Step 1 - Load SMPLX:        18.07s
  Step 2 - Align FPS:         2.67s
  Step 3 - Init Retarget:     0.37s
  Step 4 - Init Visualization: 0.01s
  Step 5 - Process Frames:    28.47s (avg: 0.327s/frame)
  Step 6 - Convert Arrays:    0.01s
  Step 7 - Forward Kinematics: 3.43s
  Step 8 - Save Data:         0.05s
Status: SUCCESS
==================================================

=== SUCCESS LOG - 2025-10-14 14:43:57 ===
Input file: /data/retarget/locomotion/raw/AMASS_SMPLXG/KIT/379/push_recovery_stand_right04_stageii.npz
Output file: ../robot/ik_based/pkl/013059.pkl
Robot type: unitree_g1
Processing time: 53.83 seconds

STEP-BY-STEP TIMING:
  Step 1 - Load SMPLX:        13.74s
  Step 2 - Align FPS:         1.82s
  Step 3 - Init Retarget:     0.46s
  Step 4 - Init Visualization: 0.00s
  Step 5 - Process Frames:    33.19s (avg: 0.503s/frame)
  Step 6 - Convert Arrays:    0.00s
  Step 7 - Forward Kinematics: 2.57s
  Step 8 - Save Data:         0.05s
Status: SUCCESS
==================================================

=== SUCCESS LOG - 2025-10-14 14:44:00 ===
Input file: /data/retarget/locomotion/raw/AMASS_SMPLXG/KIT/379/push_recovery_stand_right01_stageii.npz
Output file: ../robot/ik_based/pkl/013056.pkl
Robot type: unitree_g1
Processing time: 82.41 seconds

STEP-BY-STEP TIMING:
  Step 1 - Load SMPLX:        17.85s
  Step 2 - Align FPS:         5.69s
  Step 3 - Init Retarget:     0.67s
  Step 4 - Init Visualization: 0.00s
  Step 5 - Process Frames:    54.27s (avg: 0.396s/frame)
  Step 6 - Convert Arrays:    0.00s
  Step 7 - Forward Kinematics: 2.21s
  Step 8 - Save Data:         0.02s
Status: SUCCESS
==================================================

=== SUCCESS LOG - 2025-10-14 14:44:03 ===
Input file: /data/retarget/locomotion/raw/AMASS_SMPLXG/KIT/379/push_recovery_stand_right06_stageii.npz
Output file: ../robot/ik_based/pkl/013061.pkl
Robot type: unitree_g1
Processing time: 49.08 seconds

STEP-BY-STEP TIMING:
  Step 1 - Load SMPLX:        10.25s
  Step 2 - Align FPS:         2.59s
  Step 3 - Init Retarget:     0.64s
  Step 4 - Init Visualization: 0.00s
  Step 5 - Process Frames:    32.16s (avg: 0.429s/frame)
  Step 6 - Convert Arrays:    0.00s
  Step 7 - Forward Kinematics: 1.94s
  Step 8 - Save Data:         0.02s
Status: SUCCESS
==================================================

=== SUCCESS LOG - 2025-10-14 14:44:10 ===
Input file: /data/retarget/locomotion/raw/AMASS_SMPLXG/KIT/379/push_recovery_stand_right07_stageii.npz
Output file: ../robot/ik_based/pkl/013062.pkl
Robot type: unitree_g1
Processing time: 54.63 seconds

STEP-BY-STEP TIMING:
  Step 1 - Load SMPLX:        11.24s
  Step 2 - Align FPS:         2.69s
  Step 3 - Init Retarget:     0.54s
  Step 4 - Init Visualization: 0.00s
  Step 5 - Process Frames:    36.42s (avg: 0.419s/frame)
  Step 6 - Convert Arrays:    0.00s
  Step 7 - Forward Kinematics: 1.80s
  Step 8 - Save Data:         0.03s
Status: SUCCESS
==================================================

=== SUCCESS LOG - 2025-10-14 14:44:11 ===
Input file: /data/retarget/locomotion/raw/AMASS_SMPLXG/KIT/379/push_recovery_stand_right09_stageii.npz
Output file: ../robot/ik_based/pkl/013064.pkl
Robot type: unitree_g1
Processing time: 52.65 seconds

STEP-BY-STEP TIMING:
  Step 1 - Load SMPLX:        12.01s
  Step 2 - Align FPS:         5.29s
  Step 3 - Init Retarget:     0.66s
  Step 4 - Init Visualization: 0.01s
  Step 5 - Process Frames:    31.86s (avg: 0.393s/frame)
  Step 6 - Convert Arrays:    0.00s
  Step 7 - Forward Kinematics: 1.68s
  Step 8 - Save Data:         0.01s
Status: SUCCESS
==================================================

=== SUCCESS LOG - 2025-10-14 14:44:12 ===
Input file: /data/retarget/locomotion/raw/AMASS_SMPLXG/KIT/379/push_recovery_stand_right08_stageii.npz
Output file: ../robot/ik_based/pkl/013063.pkl
Robot type: unitree_g1
Processing time: 56.27 seconds

STEP-BY-STEP TIMING:
  Step 1 - Load SMPLX:        12.54s
  Step 2 - Align FPS:         3.44s
  Step 3 - Init Retarget:     0.52s
  Step 4 - Init Visualization: 0.00s
  Step 5 - Process Frames:    37.00s (avg: 0.370s/frame)
  Step 6 - Convert Arrays:    0.00s
  Step 7 - Forward Kinematics: 1.77s
  Step 8 - Save Data:         0.04s
Status: SUCCESS
==================================================

=== SUCCESS LOG - 2025-10-14 14:44:14 ===
Input file: /data/retarget/locomotion/raw/AMASS_SMPLXG/KIT/379/push_recovery_stand_right05_stageii.npz
Output file: ../robot/ik_based/pkl/013060.pkl
Robot type: unitree_g1
Processing time: 60.30 seconds

STEP-BY-STEP TIMING:
  Step 1 - Load SMPLX:        10.93s
  Step 2 - Align FPS:         3.40s
  Step 3 - Init Retarget:     0.57s
  Step 4 - Init Visualization: 0.01s
  Step 5 - Process Frames:    42.72s (avg: 0.375s/frame)
  Step 6 - Convert Arrays:    0.00s
  Step 7 - Forward Kinematics: 1.40s
  Step 8 - Save Data:         0.03s
Status: SUCCESS
==================================================

=== SUCCESS LOG - 2025-10-14 14:44:16 ===
Input file: /data/retarget/locomotion/raw/AMASS_SMPLXG/KIT/379/push_recovery_stand_right10_stageii.npz
Output file: ../robot/ik_based/pkl/013065.pkl
Robot type: unitree_g1
Processing time: 55.31 seconds

STEP-BY-STEP TIMING:
  Step 1 - Load SMPLX:        17.78s
  Step 2 - Align FPS:         3.11s
  Step 3 - Init Retarget:     0.74s
  Step 4 - Init Visualization: 0.00s
  Step 5 - Process Frames:    30.52s (avg: 0.351s/frame)
  Step 6 - Convert Arrays:    0.00s
  Step 7 - Forward Kinematics: 1.85s
  Step 8 - Save Data:         0.02s
Status: SUCCESS
==================================================

=== SUCCESS LOG - 2025-10-14 14:44:41 ===
Input file: /data/retarget/locomotion/raw/AMASS_SMPLXG/KIT/379/push_recovery_stand_right11_stageii.npz
Output file: ../robot/ik_based/pkl/013066.pkl
Robot type: unitree_g1
Processing time: 57.20 seconds

STEP-BY-STEP TIMING:
  Step 1 - Load SMPLX:        19.13s
  Step 2 - Align FPS:         2.07s
  Step 3 - Init Retarget:     0.58s
  Step 4 - Init Visualization: 0.00s
  Step 5 - Process Frames:    29.46s (avg: 0.351s/frame)
  Step 6 - Convert Arrays:    0.00s
  Step 7 - Forward Kinematics: 3.48s
  Step 8 - Save Data:         0.05s
Status: SUCCESS
==================================================

=== SUCCESS LOG - 2025-10-14 14:44:56 ===
Input file: /data/retarget/locomotion/raw/AMASS_SMPLXG/KIT/4/RightTurn03_stageii.npz
Output file: ../robot/ik_based/pkl/013068.pkl
Robot type: unitree_g1
Processing time: 58.59 seconds

STEP-BY-STEP TIMING:
  Step 1 - Load SMPLX:        13.90s
  Step 2 - Align FPS:         2.66s
  Step 3 - Init Retarget:     0.45s
  Step 4 - Init Visualization: 0.00s
  Step 5 - Process Frames:    37.08s (avg: 0.306s/frame)
  Step 6 - Convert Arrays:    0.00s
  Step 7 - Forward Kinematics: 2.41s
  Step 8 - Save Data:         0.03s
Status: SUCCESS
==================================================

=== SUCCESS LOG - 2025-10-14 14:44:57 ===
Input file: /data/retarget/locomotion/raw/AMASS_SMPLXG/KIT/4/RightTurn01_stageii.npz
Output file: ../robot/ik_based/pkl/013067.pkl
Robot type: unitree_g1
Processing time: 68.61 seconds

STEP-BY-STEP TIMING:
  Step 1 - Load SMPLX:        17.78s
  Step 2 - Align FPS:         5.10s
  Step 3 - Init Retarget:     0.34s
  Step 4 - Init Visualization: 0.00s
  Step 5 - Process Frames:    40.80s (avg: 0.311s/frame)
  Step 6 - Convert Arrays:    0.01s
  Step 7 - Forward Kinematics: 2.61s
  Step 8 - Save Data:         0.15s
Status: SUCCESS
==================================================

=== SUCCESS LOG - 2025-10-14 14:45:06 ===
Input file: /data/retarget/locomotion/raw/AMASS_SMPLXG/KIT/4/RightTurn04_stageii.npz
Output file: ../robot/ik_based/pkl/013069.pkl
Robot type: unitree_g1
Processing time: 65.91 seconds

STEP-BY-STEP TIMING:
  Step 1 - Load SMPLX:        12.83s
  Step 2 - Align FPS:         4.11s
  Step 3 - Init Retarget:     0.46s
  Step 4 - Init Visualization: 0.00s
  Step 5 - Process Frames:    44.10s (avg: 0.320s/frame)
  Step 6 - Convert Arrays:    0.00s
  Step 7 - Forward Kinematics: 2.03s
  Step 8 - Save Data:         0.01s
Status: SUCCESS
==================================================

=== SUCCESS LOG - 2025-10-14 14:45:09 ===
Input file: /data/retarget/locomotion/raw/AMASS_SMPLXG/KIT/4/RightTurn05_stageii.npz
Output file: ../robot/ik_based/pkl/013070.pkl
Robot type: unitree_g1
Processing time: 65.46 seconds

STEP-BY-STEP TIMING:
  Step 1 - Load SMPLX:        13.88s
  Step 2 - Align FPS:         3.68s
  Step 3 - Init Retarget:     0.43s
  Step 4 - Init Visualization: 0.00s
  Step 5 - Process Frames:    43.94s (avg: 0.325s/frame)
  Step 6 - Convert Arrays:    0.00s
  Step 7 - Forward Kinematics: 1.97s
  Step 8 - Save Data:         0.03s
Status: SUCCESS
==================================================

=== SUCCESS LOG - 2025-10-14 14:45:10 ===
Input file: /data/retarget/locomotion/raw/AMASS_SMPLXG/KIT/4/RightTurn06_stageii.npz
Output file: ../robot/ik_based/pkl/013071.pkl
Robot type: unitree_g1
Processing time: 59.78 seconds

STEP-BY-STEP TIMING:
  Step 1 - Load SMPLX:        12.14s
  Step 2 - Align FPS:         3.72s
  Step 3 - Init Retarget:     0.60s
  Step 4 - Init Visualization: 0.00s
  Step 5 - Process Frames:    40.16s (avg: 0.340s/frame)
  Step 6 - Convert Arrays:    0.00s
  Step 7 - Forward Kinematics: 1.73s
  Step 8 - Save Data:         0.04s
Status: SUCCESS
==================================================

=== SUCCESS LOG - 2025-10-14 14:45:15 ===
Input file: /data/retarget/locomotion/raw/AMASS_SMPLXG/KIT/4/RightTurn07_stageii.npz
Output file: ../robot/ik_based/pkl/013072.pkl
Robot type: unitree_g1
Processing time: 63.15 seconds

STEP-BY-STEP TIMING:
  Step 1 - Load SMPLX:        12.50s
  Step 2 - Align FPS:         5.91s
  Step 3 - Init Retarget:     0.67s
  Step 4 - Init Visualization: 0.00s
  Step 5 - Process Frames:    41.54s (avg: 0.325s/frame)
  Step 6 - Convert Arrays:    0.00s
  Step 7 - Forward Kinematics: 1.38s
  Step 8 - Save Data:         0.03s
Status: SUCCESS
==================================================

=== SUCCESS LOG - 2025-10-14 14:45:15 ===
Input file: /data/retarget/locomotion/raw/AMASS_SMPLXG/KIT/4/RightTurn09_stageii.npz
Output file: ../robot/ik_based/pkl/013074.pkl
Robot type: unitree_g1
Processing time: 60.62 seconds

STEP-BY-STEP TIMING:
  Step 1 - Load SMPLX:        14.80s
  Step 2 - Align FPS:         3.35s
  Step 3 - Init Retarget:     1.42s
  Step 4 - Init Visualization: 0.02s
  Step 5 - Process Frames:    38.45s (avg: 0.320s/frame)
  Step 6 - Convert Arrays:    0.00s
  Step 7 - Forward Kinematics: 1.10s
  Step 8 - Save Data:         0.04s
Status: SUCCESS
==================================================

=== SUCCESS LOG - 2025-10-14 14:45:17 ===
Input file: /data/retarget/locomotion/raw/AMASS_SMPLXG/KIT/4/RightTurn08_stageii.npz
Output file: ../robot/ik_based/pkl/013073.pkl
Robot type: unitree_g1
Processing time: 64.32 seconds

STEP-BY-STEP TIMING:
  Step 1 - Load SMPLX:        14.37s
  Step 2 - Align FPS:         6.18s
  Step 3 - Init Retarget:     1.30s
  Step 4 - Init Visualization: 0.00s
  Step 5 - Process Frames:    38.88s (avg: 0.290s/frame)
  Step 6 - Convert Arrays:    0.00s
  Step 7 - Forward Kinematics: 1.91s
  Step 8 - Save Data:         0.02s
Status: SUCCESS
==================================================

=== SUCCESS LOG - 2025-10-14 14:45:21 ===
Input file: /data/retarget/locomotion/raw/AMASS_SMPLXG/KIT/4/RightTurn10_stageii.npz
Output file: ../robot/ik_based/pkl/013075.pkl
Robot type: unitree_g1
Processing time: 64.28 seconds

STEP-BY-STEP TIMING:
  Step 1 - Load SMPLX:        18.47s
  Step 2 - Align FPS:         6.86s
  Step 3 - Init Retarget:     0.56s
  Step 4 - Init Visualization: 0.00s
  Step 5 - Process Frames:    36.29s (avg: 0.283s/frame)
  Step 6 - Convert Arrays:    0.00s
  Step 7 - Forward Kinematics: 0.93s
  Step 8 - Save Data:         0.01s
Status: SUCCESS
==================================================

=== SUCCESS LOG - 2025-10-14 14:46:09 ===
Input file: /data/retarget/locomotion/raw/AMASS_SMPLXG/KIT/4/WalkInClockwiseCircle01_stageii.npz
Output file: ../robot/ik_based/pkl/013076.pkl
Robot type: unitree_g1
Processing time: 87.50 seconds

STEP-BY-STEP TIMING:
  Step 1 - Load SMPLX:        21.19s
  Step 2 - Align FPS:         5.27s
  Step 3 - Init Retarget:     0.44s
  Step 4 - Init Visualization: 0.00s
  Step 5 - Process Frames:    54.46s (avg: 0.345s/frame)
  Step 6 - Convert Arrays:    0.00s
  Step 7 - Forward Kinematics: 2.95s
  Step 8 - Save Data:         0.05s
Status: SUCCESS
==================================================

=== SUCCESS LOG - 2025-10-14 14:46:34 ===
Input file: /data/retarget/locomotion/raw/AMASS_SMPLXG/KIT/4/WalkInClockwiseCircle02_stageii.npz
Output file: ../robot/ik_based/pkl/013077.pkl
Robot type: unitree_g1
Processing time: 96.84 seconds

STEP-BY-STEP TIMING:
  Step 1 - Load SMPLX:        15.41s
  Step 2 - Align FPS:         5.24s
  Step 3 - Init Retarget:     0.83s
  Step 4 - Init Visualization: 0.00s
  Step 5 - Process Frames:    69.11s (avg: 0.362s/frame)
  Step 6 - Convert Arrays:    0.00s
  Step 7 - Forward Kinematics: 2.95s
  Step 8 - Save Data:         0.02s
Status: SUCCESS
==================================================

=== SUCCESS LOG - 2025-10-14 14:46:36 ===
Input file: /data/retarget/locomotion/raw/AMASS_SMPLXG/KIT/4/WalkInClockwiseCircle03_stageii.npz
Output file: ../robot/ik_based/pkl/013078.pkl
Robot type: unitree_g1
Processing time: 99.04 seconds

STEP-BY-STEP TIMING:
  Step 1 - Load SMPLX:        15.80s
  Step 2 - Align FPS:         5.58s
  Step 3 - Init Retarget:     0.38s
  Step 4 - Init Visualization: 0.00s
  Step 5 - Process Frames:    70.89s (avg: 0.371s/frame)
  Step 6 - Convert Arrays:    0.00s
  Step 7 - Forward Kinematics: 3.68s
  Step 8 - Save Data:         0.10s
Status: SUCCESS
==================================================

=== SUCCESS LOG - 2025-10-14 14:46:41 ===
Input file: /data/retarget/locomotion/raw/AMASS_SMPLXG/KIT/4/WalkInClockwiseCircle04_stageii.npz
Output file: ../robot/ik_based/pkl/013079.pkl
Robot type: unitree_g1
Processing time: 94.46 seconds

STEP-BY-STEP TIMING:
  Step 1 - Load SMPLX:        12.39s
  Step 2 - Align FPS:         5.56s
  Step 3 - Init Retarget:     0.61s
  Step 4 - Init Visualization: 0.00s
  Step 5 - Process Frames:    72.40s (avg: 0.379s/frame)
  Step 6 - Convert Arrays:    0.02s
  Step 7 - Forward Kinematics: 2.15s
  Step 8 - Save Data:         0.03s
Status: SUCCESS
==================================================

=== SUCCESS LOG - 2025-10-14 14:46:43 ===
Input file: /data/retarget/locomotion/raw/AMASS_SMPLXG/KIT/4/WalkInClockwiseCircle05_stageii.npz
Output file: ../robot/ik_based/pkl/013080.pkl
Robot type: unitree_g1
Processing time: 93.17 seconds

STEP-BY-STEP TIMING:
  Step 1 - Load SMPLX:        11.52s
  Step 2 - Align FPS:         7.43s
  Step 3 - Init Retarget:     0.46s
  Step 4 - Init Visualization: 0.00s
  Step 5 - Process Frames:    70.71s (avg: 0.366s/frame)
  Step 6 - Convert Arrays:    0.00s
  Step 7 - Forward Kinematics: 1.71s
  Step 8 - Save Data:         0.02s
Status: SUCCESS
==================================================

=== SUCCESS LOG - 2025-10-14 14:46:47 ===
Input file: /data/retarget/locomotion/raw/AMASS_SMPLXG/KIT/4/WalkInClockwiseCircle09_stageii.npz
Output file: ../robot/ik_based/pkl/013084.pkl
Robot type: unitree_g1
Processing time: 90.19 seconds

STEP-BY-STEP TIMING:
  Step 1 - Load SMPLX:        16.05s
  Step 2 - Align FPS:         7.12s
  Step 3 - Init Retarget:     0.65s
  Step 4 - Init Visualization: 0.01s
  Step 5 - Process Frames:    63.68s (avg: 0.352s/frame)
  Step 6 - Convert Arrays:    0.00s
  Step 7 - Forward Kinematics: 1.64s
  Step 8 - Save Data:         0.02s
Status: SUCCESS
==================================================

=== SUCCESS LOG - 2025-10-14 14:46:48 ===
Input file: /data/retarget/locomotion/raw/AMASS_SMPLXG/KIT/4/WalkInClockwiseCircle06_stageii.npz
Output file: ../robot/ik_based/pkl/013081.pkl
Robot type: unitree_g1
Processing time: 97.38 seconds

STEP-BY-STEP TIMING:
  Step 1 - Load SMPLX:        12.28s
  Step 2 - Align FPS:         9.18s
  Step 3 - Init Retarget:     0.76s
  Step 4 - Init Visualization: 0.00s
  Step 5 - Process Frames:    72.98s (avg: 0.353s/frame)
  Step 6 - Convert Arrays:    0.00s
  Step 7 - Forward Kinematics: 1.16s
  Step 8 - Save Data:         0.01s
Status: SUCCESS
==================================================

=== SUCCESS LOG - 2025-10-14 14:46:49 ===
Input file: /data/retarget/locomotion/raw/AMASS_SMPLXG/KIT/4/WalkInClockwiseCircle07_stageii.npz
Output file: ../robot/ik_based/pkl/013082.pkl
Robot type: unitree_g1
Processing time: 93.71 seconds

STEP-BY-STEP TIMING:
  Step 1 - Load SMPLX:        12.96s
  Step 2 - Align FPS:         8.24s
  Step 3 - Init Retarget:     0.54s
  Step 4 - Init Visualization: 0.00s
  Step 5 - Process Frames:    69.86s (avg: 0.348s/frame)
  Step 6 - Convert Arrays:    0.00s
  Step 7 - Forward Kinematics: 1.24s
  Step 8 - Save Data:         0.03s
Status: SUCCESS
==================================================

=== SUCCESS LOG - 2025-10-14 14:46:51 ===
Input file: /data/retarget/locomotion/raw/AMASS_SMPLXG/KIT/4/WalkInClockwiseCircle08_stageii.npz
Output file: ../robot/ik_based/pkl/013083.pkl
Robot type: unitree_g1
Processing time: 95.08 seconds

STEP-BY-STEP TIMING:
  Step 1 - Load SMPLX:        14.02s
  Step 2 - Align FPS:         9.13s
  Step 3 - Init Retarget:     0.70s
  Step 4 - Init Visualization: 0.00s
  Step 5 - Process Frames:    68.89s (avg: 0.333s/frame)
  Step 6 - Convert Arrays:    0.00s
  Step 7 - Forward Kinematics: 1.05s
  Step 8 - Save Data:         0.03s
Status: SUCCESS
==================================================

=== SUCCESS LOG - 2025-10-14 14:47:10 ===
Input file: /data/retarget/locomotion/raw/AMASS_SMPLXG/KIT/4/WalkInClockwiseCircle10_stageii.npz
Output file: ../robot/ik_based/pkl/013085.pkl
Robot type: unitree_g1
Processing time: 108.60 seconds

STEP-BY-STEP TIMING:
  Step 1 - Load SMPLX:        22.17s
  Step 2 - Align FPS:         12.41s
  Step 3 - Init Retarget:     0.64s
  Step 4 - Init Visualization: 0.00s
  Step 5 - Process Frames:    66.37s (avg: 0.342s/frame)
  Step 6 - Convert Arrays:    0.00s
  Step 7 - Forward Kinematics: 4.25s
  Step 8 - Save Data:         0.03s
Status: SUCCESS
==================================================

=== SUCCESS LOG - 2025-10-14 14:47:57 ===
Input file: /data/retarget/locomotion/raw/AMASS_SMPLXG/KIT/4/WalkInCounterClockwiseCircle01_stageii.npz
Output file: ../robot/ik_based/pkl/013086.pkl
Robot type: unitree_g1
Processing time: 107.34 seconds

STEP-BY-STEP TIMING:
  Step 1 - Load SMPLX:        19.73s
  Step 2 - Align FPS:         7.63s
  Step 3 - Init Retarget:     0.67s
  Step 4 - Init Visualization: 0.00s
  Step 5 - Process Frames:    72.91s (avg: 0.321s/frame)
  Step 6 - Convert Arrays:    0.01s
  Step 7 - Forward Kinematics: 3.14s
  Step 8 - Save Data:         0.12s
Status: SUCCESS
==================================================

=== SUCCESS LOG - 2025-10-14 14:48:23 ===
Input file: /data/retarget/locomotion/raw/AMASS_SMPLXG/KIT/4/WalkInCounterClockwiseCircle03_stageii.npz
Output file: ../robot/ik_based/pkl/013088.pkl
Robot type: unitree_g1
Processing time: 105.02 seconds

STEP-BY-STEP TIMING:
  Step 1 - Load SMPLX:        12.23s
  Step 2 - Align FPS:         7.21s
  Step 3 - Init Retarget:     0.52s
  Step 4 - Init Visualization: 0.00s
  Step 5 - Process Frames:    79.03s (avg: 0.403s/frame)
  Step 6 - Convert Arrays:    0.00s
  Step 7 - Forward Kinematics: 2.67s
  Step 8 - Save Data:         0.11s
Status: SUCCESS
==================================================

=== SUCCESS LOG - 2025-10-14 14:48:26 ===
Input file: /data/retarget/locomotion/raw/AMASS_SMPLXG/KIT/4/WalkInCounterClockwiseCircle02_stageii.npz
Output file: ../robot/ik_based/pkl/013087.pkl
Robot type: unitree_g1
Processing time: 111.09 seconds

STEP-BY-STEP TIMING:
  Step 1 - Load SMPLX:        13.58s
  Step 2 - Align FPS:         6.39s
  Step 3 - Init Retarget:     0.53s
  Step 4 - Init Visualization: 0.02s
  Step 5 - Process Frames:    85.92s (avg: 0.384s/frame)
  Step 6 - Convert Arrays:    0.00s
  Step 7 - Forward Kinematics: 3.14s
  Step 8 - Save Data:         0.02s
Status: SUCCESS
==================================================

=== SUCCESS LOG - 2025-10-14 14:48:27 ===
Input file: /data/retarget/locomotion/raw/AMASS_SMPLXG/KIT/4/WalkInCounterClockwiseCircle04_stageii.npz
Output file: ../robot/ik_based/pkl/013089.pkl
Robot type: unitree_g1
Processing time: 104.64 seconds

STEP-BY-STEP TIMING:
  Step 1 - Load SMPLX:        10.89s
  Step 2 - Align FPS:         8.38s
  Step 3 - Init Retarget:     0.43s
  Step 4 - Init Visualization: 0.00s
  Step 5 - Process Frames:    81.34s (avg: 0.385s/frame)
  Step 6 - Convert Arrays:    0.00s
  Step 7 - Forward Kinematics: 2.16s
  Step 8 - Save Data:         0.03s
Status: SUCCESS
==================================================

=== SUCCESS LOG - 2025-10-14 14:48:27 ===
Input file: /data/retarget/locomotion/raw/AMASS_SMPLXG/KIT/4/WalkInCounterClockwiseCircle10_stageii.npz
Output file: ../robot/ik_based/pkl/013094.pkl
Robot type: unitree_g1
Processing time: 95.63 seconds

STEP-BY-STEP TIMING:
  Step 1 - Load SMPLX:        19.03s
  Step 2 - Align FPS:         8.13s
  Step 3 - Init Retarget:     0.73s
  Step 4 - Init Visualization: 0.00s
  Step 5 - Process Frames:    63.85s (avg: 0.417s/frame)
  Step 6 - Convert Arrays:    0.00s
  Step 7 - Forward Kinematics: 2.08s
  Step 8 - Save Data:         0.04s
Status: SUCCESS
==================================================

=== SUCCESS LOG - 2025-10-14 14:48:27 ===
Input file: /data/retarget/locomotion/raw/AMASS_SMPLXG/KIT/4/WalkInCounterClockwiseCircle06_stageii.npz
Output file: ../robot/ik_based/pkl/013090.pkl
Robot type: unitree_g1
Processing time: 104.23 seconds

STEP-BY-STEP TIMING:
  Step 1 - Load SMPLX:        11.52s
  Step 2 - Align FPS:         9.78s
  Step 3 - Init Retarget:     0.54s
  Step 4 - Init Visualization: 0.00s
  Step 5 - Process Frames:    79.35s (avg: 0.376s/frame)
  Step 6 - Convert Arrays:    0.00s
  Step 7 - Forward Kinematics: 1.52s
  Step 8 - Save Data:         0.03s
Status: SUCCESS
==================================================

=== SUCCESS LOG - 2025-10-14 14:48:30 ===
Input file: /data/retarget/locomotion/raw/AMASS_SMPLXG/KIT/4/WalkInCounterClockwiseCircle07_stageii.npz
Output file: ../robot/ik_based/pkl/013091.pkl
Robot type: unitree_g1
Processing time: 102.18 seconds

STEP-BY-STEP TIMING:
  Step 1 - Load SMPLX:        12.63s
  Step 2 - Align FPS:         9.56s
  Step 3 - Init Retarget:     0.68s
  Step 4 - Init Visualization: 0.01s
  Step 5 - Process Frames:    76.68s (avg: 0.401s/frame)
  Step 6 - Convert Arrays:    0.00s
  Step 7 - Forward Kinematics: 1.52s
  Step 8 - Save Data:         0.02s
Status: SUCCESS
==================================================

=== SUCCESS LOG - 2025-10-14 14:48:32 ===
Input file: /data/retarget/locomotion/raw/AMASS_SMPLXG/KIT/4/WalkInCounterClockwiseCircle08_stageii.npz
Output file: ../robot/ik_based/pkl/013092.pkl
Robot type: unitree_g1
Processing time: 103.67 seconds

STEP-BY-STEP TIMING:
  Step 1 - Load SMPLX:        13.46s
  Step 2 - Align FPS:         10.01s
  Step 3 - Init Retarget:     0.69s
  Step 4 - Init Visualization: 0.00s
  Step 5 - Process Frames:    77.61s (avg: 0.361s/frame)
  Step 6 - Convert Arrays:    0.00s
  Step 7 - Forward Kinematics: 1.01s
  Step 8 - Save Data:         0.02s
Status: SUCCESS
==================================================

=== SUCCESS LOG - 2025-10-14 14:48:33 ===
Input file: /data/retarget/locomotion/raw/AMASS_SMPLXG/KIT/4/WalkingStraightBackwards01_stageii.npz
Output file: ../robot/ik_based/pkl/013095.pkl
Robot type: unitree_g1
Processing time: 82.52 seconds

STEP-BY-STEP TIMING:
  Step 1 - Load SMPLX:        27.43s
  Step 2 - Align FPS:         4.59s
  Step 3 - Init Retarget:     0.65s
  Step 4 - Init Visualization: 0.00s
  Step 5 - Process Frames:    48.85s (avg: 0.313s/frame)
  Step 6 - Convert Arrays:    0.00s
  Step 7 - Forward Kinematics: 0.44s
  Step 8 - Save Data:         0.01s
Status: SUCCESS
==================================================

=== SUCCESS LOG - 2025-10-14 14:48:43 ===
Input file: /data/retarget/locomotion/raw/AMASS_SMPLXG/KIT/4/WalkInCounterClockwiseCircle09_stageii.npz
Output file: ../robot/ik_based/pkl/013093.pkl
Robot type: unitree_g1
Processing time: 112.88 seconds

STEP-BY-STEP TIMING:
  Step 1 - Load SMPLX:        15.70s
  Step 2 - Align FPS:         10.65s
  Step 3 - Init Retarget:     0.58s
  Step 4 - Init Visualization: 0.00s
  Step 5 - Process Frames:    79.37s (avg: 0.429s/frame)
  Step 6 - Convert Arrays:    0.00s
  Step 7 - Forward Kinematics: 3.87s
  Step 8 - Save Data:         0.05s
Status: SUCCESS
==================================================

=== SUCCESS LOG - 2025-10-14 14:49:07 ===
Input file: /data/retarget/locomotion/raw/AMASS_SMPLXG/KIT/4/WalkingStraightBackwards02_stageii.npz
Output file: ../robot/ik_based/pkl/013096.pkl
Robot type: unitree_g1
Processing time: 68.74 seconds

STEP-BY-STEP TIMING:
  Step 1 - Load SMPLX:        21.72s
  Step 2 - Align FPS:         5.85s
  Step 3 - Init Retarget:     0.47s
  Step 4 - Init Visualization: 0.00s
  Step 5 - Process Frames:    36.16s (avg: 0.264s/frame)
  Step 6 - Convert Arrays:    0.00s
  Step 7 - Forward Kinematics: 2.56s
  Step 8 - Save Data:         0.04s
Status: SUCCESS
==================================================

=== SUCCESS LOG - 2025-10-14 14:49:32 ===
Input file: /data/retarget/locomotion/raw/AMASS_SMPLXG/KIT/4/WalkingStraightBackwards08_stageii.npz
Output file: ../robot/ik_based/pkl/013102.pkl
Robot type: unitree_g1
Processing time: 61.58 seconds

STEP-BY-STEP TIMING:
  Step 1 - Load SMPLX:        10.46s
  Step 2 - Align FPS:         2.52s
  Step 3 - Init Retarget:     0.93s
  Step 4 - Init Visualization: 0.00s
  Step 5 - Process Frames:    41.57s (avg: 0.378s/frame)
  Step 6 - Convert Arrays:    0.00s
  Step 7 - Forward Kinematics: 2.82s
  Step 8 - Save Data:         0.06s
Status: SUCCESS
==================================================

=== SUCCESS LOG - 2025-10-14 14:49:35 ===
Input file: /data/retarget/locomotion/raw/AMASS_SMPLXG/KIT/4/WalkingStraightForward01_stageii.npz
Output file: ../robot/ik_based/pkl/013104.pkl
Robot type: unitree_g1
Processing time: 61.28 seconds

STEP-BY-STEP TIMING:
  Step 1 - Load SMPLX:        18.32s
  Step 2 - Align FPS:         2.40s
  Step 3 - Init Retarget:     0.57s
  Step 4 - Init Visualization: 0.00s
  Step 5 - Process Frames:    34.57s (avg: 0.368s/frame)
  Step 6 - Convert Arrays:    0.00s
  Step 7 - Forward Kinematics: 3.31s
  Step 8 - Save Data:         0.03s
Status: SUCCESS
==================================================

=== SUCCESS LOG - 2025-10-14 14:49:36 ===
Input file: /data/retarget/locomotion/raw/AMASS_SMPLXG/KIT/4/WalkingStraightBackwards05_stageii.npz
Output file: ../robot/ik_based/pkl/013099.pkl
Robot type: unitree_g1
Processing time: 69.37 seconds

STEP-BY-STEP TIMING:
  Step 1 - Load SMPLX:        8.62s
  Step 2 - Align FPS:         4.87s
  Step 3 - Init Retarget:     1.51s
  Step 4 - Init Visualization: 0.02s
  Step 5 - Process Frames:    49.94s (avg: 0.367s/frame)
  Step 6 - Convert Arrays:    0.00s
  Step 7 - Forward Kinematics: 2.37s
  Step 8 - Save Data:         0.03s
Status: SUCCESS
==================================================

=== SUCCESS LOG - 2025-10-14 14:49:38 ===
Input file: /data/retarget/locomotion/raw/AMASS_SMPLXG/KIT/4/WalkingStraightBackwards07_stageii.npz
Output file: ../robot/ik_based/pkl/013101.pkl
Robot type: unitree_g1
Processing time: 69.75 seconds

STEP-BY-STEP TIMING:
  Step 1 - Load SMPLX:        9.04s
  Step 2 - Align FPS:         4.60s
  Step 3 - Init Retarget:     2.17s
  Step 4 - Init Visualization: 0.01s
  Step 5 - Process Frames:    50.71s (avg: 0.376s/frame)
  Step 6 - Convert Arrays:    0.02s
  Step 7 - Forward Kinematics: 2.01s
  Step 8 - Save Data:         0.01s
Status: SUCCESS
==================================================

=== SUCCESS LOG - 2025-10-14 14:49:39 ===
Input file: /data/retarget/locomotion/raw/AMASS_SMPLXG/KIT/4/WalkingStraightBackwards04_stageii.npz
Output file: ../robot/ik_based/pkl/013098.pkl
Robot type: unitree_g1
Processing time: 72.01 seconds

STEP-BY-STEP TIMING:
  Step 1 - Load SMPLX:        8.53s
  Step 2 - Align FPS:         6.73s
  Step 3 - Init Retarget:     1.97s
  Step 4 - Init Visualization: 0.00s
  Step 5 - Process Frames:    52.70s (avg: 0.374s/frame)
  Step 6 - Convert Arrays:    0.00s
  Step 7 - Forward Kinematics: 1.09s
  Step 8 - Save Data:         0.01s
Status: SUCCESS
==================================================

=== SUCCESS LOG - 2025-10-14 14:49:39 ===
Input file: /data/retarget/locomotion/raw/AMASS_SMPLXG/KIT/4/WalkingStraightBackwards03_stageii.npz
Output file: ../robot/ik_based/pkl/013097.pkl
Robot type: unitree_g1
Processing time: 75.29 seconds

STEP-BY-STEP TIMING:
  Step 1 - Load SMPLX:        10.36s
  Step 2 - Align FPS:         6.34s
  Step 3 - Init Retarget:     0.60s
  Step 4 - Init Visualization: 0.00s
  Step 5 - Process Frames:    56.01s (avg: 0.352s/frame)
  Step 6 - Convert Arrays:    0.00s
  Step 7 - Forward Kinematics: 1.10s
  Step 8 - Save Data:         0.02s
Status: SUCCESS
==================================================

=== SUCCESS LOG - 2025-10-14 14:49:39 ===
Input file: /data/retarget/locomotion/raw/AMASS_SMPLXG/KIT/4/WalkingStraightBackwards06_stageii.npz
Output file: ../robot/ik_based/pkl/013100.pkl
Robot type: unitree_g1
Processing time: 71.80 seconds

STEP-BY-STEP TIMING:
  Step 1 - Load SMPLX:        8.28s
  Step 2 - Align FPS:         5.48s
  Step 3 - Init Retarget:     2.35s
  Step 4 - Init Visualization: 0.01s
  Step 5 - Process Frames:    53.60s (avg: 0.365s/frame)
  Step 6 - Convert Arrays:    0.00s
  Step 7 - Forward Kinematics: 1.00s
  Step 8 - Save Data:         0.02s
Status: SUCCESS
==================================================

=== SUCCESS LOG - 2025-10-14 14:49:40 ===
Input file: /data/retarget/locomotion/raw/AMASS_SMPLXG/KIT/4/WalkingStraightBackwards09_stageii.npz
Output file: ../robot/ik_based/pkl/013103.pkl
Robot type: unitree_g1
Processing time: 68.15 seconds

STEP-BY-STEP TIMING:
  Step 1 - Load SMPLX:        12.63s
  Step 2 - Align FPS:         6.64s
  Step 3 - Init Retarget:     0.71s
  Step 4 - Init Visualization: 0.00s
  Step 5 - Process Frames:    47.21s (avg: 0.342s/frame)
  Step 6 - Convert Arrays:    0.00s
  Step 7 - Forward Kinematics: 0.52s
  Step 8 - Save Data:         0.01s
Status: SUCCESS
==================================================

=== ERROR LOG - 2025-10-14 14:49:48 ===
Input file: /data/retarget/locomotion/raw/AMASS_SMPLXG/KIT/4/male_stagei.npz
Output file: ../robot/ik_based/pkl/013113.pkl
Robot type: unitree_g1
Processing time: 8.09 seconds
Error message: 'pose_body is not a file in the archive'
Error type: KeyError
==================================================

=== SUCCESS LOG - 2025-10-14 14:49:52 ===
Input file: /data/retarget/locomotion/raw/AMASS_SMPLXG/KIT/4/WalkingStraightForward02_stageii.npz
Output file: ../robot/ik_based/pkl/013105.pkl
Robot type: unitree_g1
Processing time: 68.83 seconds

STEP-BY-STEP TIMING:
  Step 1 - Load SMPLX:        22.75s
  Step 2 - Align FPS:         8.91s
  Step 3 - Init Retarget:     0.75s
  Step 4 - Init Visualization: 0.00s
  Step 5 - Process Frames:    31.14s (avg: 0.236s/frame)
  Step 6 - Convert Arrays:    0.00s
  Step 7 - Forward Kinematics: 2.27s
  Step 8 - Save Data:         0.02s
Status: SUCCESS
==================================================

=== ERROR LOG - 2025-10-14 14:49:53 ===
Input file: /data/retarget/locomotion/raw/AMASS_SMPLXG/KIT/421/female_stagei.npz
Output file: ../robot/ik_based/pkl/013114.pkl
Robot type: unitree_g1
Processing time: 12.33 seconds
Error message: 'pose_body is not a file in the archive'
Error type: KeyError
==================================================

=== SUCCESS LOG - 2025-10-14 14:50:13 ===
Input file: /data/retarget/locomotion/raw/AMASS_SMPLXG/KIT/4/WalkingStraightForward03_stageii.npz
Output file: ../robot/ik_based/pkl/013106.pkl
Robot type: unitree_g1
Processing time: 64.51 seconds

STEP-BY-STEP TIMING:
  Step 1 - Load SMPLX:        21.03s
  Step 2 - Align FPS:         5.13s
  Step 3 - Init Retarget:     0.49s
  Step 4 - Init Visualization: 0.00s
  Step 5 - Process Frames:    32.85s (avg: 0.231s/frame)
  Step 6 - Convert Arrays:    0.00s
  Step 7 - Forward Kinematics: 2.53s
  Step 8 - Save Data:         0.09s
Status: SUCCESS
==================================================

=== SUCCESS LOG - 2025-10-14 14:50:45 ===
Input file: /data/retarget/locomotion/raw/AMASS_SMPLXG/KIT/4/WalkingStraightForward04_stageii.npz
Output file: ../robot/ik_based/pkl/013107.pkl
Robot type: unitree_g1
Processing time: 72.79 seconds

STEP-BY-STEP TIMING:
  Step 1 - Load SMPLX:        9.31s
  Step 2 - Align FPS:         3.71s
  Step 3 - Init Retarget:     0.43s
  Step 4 - Init Visualization: 0.00s
  Step 5 - Process Frames:    53.00s (avg: 0.376s/frame)
  Step 6 - Convert Arrays:    0.00s
  Step 7 - Forward Kinematics: 3.08s
  Step 8 - Save Data:         0.04s
Status: SUCCESS
==================================================

=== SUCCESS LOG - 2025-10-14 14:50:49 ===
Input file: /data/retarget/locomotion/raw/AMASS_SMPLXG/KIT/4/WalkingStraightForward05_stageii.npz
Output file: ../robot/ik_based/pkl/013108.pkl
Robot type: unitree_g1
Processing time: 73.07 seconds

STEP-BY-STEP TIMING:
  Step 1 - Load SMPLX:        7.69s
  Step 2 - Align FPS:         5.01s
  Step 3 - Init Retarget:     0.40s
  Step 4 - Init Visualization: 0.00s
  Step 5 - Process Frames:    55.56s (avg: 0.378s/frame)
  Step 6 - Convert Arrays:    0.01s
  Step 7 - Forward Kinematics: 2.84s
  Step 8 - Save Data:         0.04s
Status: SUCCESS
==================================================

=== SUCCESS LOG - 2025-10-14 14:50:49 ===
Input file: /data/retarget/locomotion/raw/AMASS_SMPLXG/KIT/4/WalkingStraightForward06_stageii.npz
Output file: ../robot/ik_based/pkl/013109.pkl
Robot type: unitree_g1
Processing time: 71.98 seconds

STEP-BY-STEP TIMING:
  Step 1 - Load SMPLX:        7.20s
  Step 2 - Align FPS:         5.43s
  Step 3 - Init Retarget:     0.75s
  Step 4 - Init Visualization: 0.00s
  Step 5 - Process Frames:    54.71s (avg: 0.355s/frame)
  Step 6 - Convert Arrays:    0.02s
  Step 7 - Forward Kinematics: 2.31s
  Step 8 - Save Data:         0.04s
Status: SUCCESS
==================================================

=== SUCCESS LOG - 2025-10-14 14:50:50 ===
Input file: /data/retarget/locomotion/raw/AMASS_SMPLXG/KIT/4/WalkingStraightForward07_stageii.npz
Output file: ../robot/ik_based/pkl/013110.pkl
Robot type: unitree_g1
Processing time: 71.89 seconds

STEP-BY-STEP TIMING:
  Step 1 - Load SMPLX:        8.03s
  Step 2 - Align FPS:         8.16s
  Step 3 - Init Retarget:     0.58s
  Step 4 - Init Visualization: 0.00s
  Step 5 - Process Frames:    50.91s (avg: 0.351s/frame)
  Step 6 - Convert Arrays:    0.00s
  Step 7 - Forward Kinematics: 2.26s
  Step 8 - Save Data:         0.04s
Status: SUCCESS
==================================================

=== SUCCESS LOG - 2025-10-14 14:50:57 ===
Input file: /data/retarget/locomotion/raw/AMASS_SMPLXG/KIT/421/push_recovery_back01_stageii.npz
Output file: ../robot/ik_based/pkl/013115.pkl
Robot type: unitree_g1
Processing time: 69.19 seconds

STEP-BY-STEP TIMING:
  Step 1 - Load SMPLX:        20.16s
  Step 2 - Align FPS:         3.30s
  Step 3 - Init Retarget:     0.77s
  Step 4 - Init Visualization: 0.03s
  Step 5 - Process Frames:    41.41s (avg: 0.391s/frame)
  Step 6 - Convert Arrays:    0.00s
  Step 7 - Forward Kinematics: 1.81s
  Step 8 - Save Data:         0.03s
Status: SUCCESS
==================================================

=== SUCCESS LOG - 2025-10-14 14:51:02 ===
Input file: /data/retarget/locomotion/raw/AMASS_SMPLXG/KIT/4/WalkingStraightForward08_stageii.npz
Output file: ../robot/ik_based/pkl/013111.pkl
Robot type: unitree_g1
Processing time: 82.79 seconds

STEP-BY-STEP TIMING:
  Step 1 - Load SMPLX:        8.31s
  Step 2 - Align FPS:         8.75s
  Step 3 - Init Retarget:     0.90s
  Step 4 - Init Visualization: 0.00s
  Step 5 - Process Frames:    62.63s (avg: 0.404s/frame)
  Step 6 - Convert Arrays:    0.00s
  Step 7 - Forward Kinematics: 1.18s
  Step 8 - Save Data:         0.01s
Status: SUCCESS
==================================================

=== SUCCESS LOG - 2025-10-14 14:51:02 ===
Input file: /data/retarget/locomotion/raw/AMASS_SMPLXG/KIT/421/push_recovery_back02_stageii.npz
Output file: ../robot/ik_based/pkl/013116.pkl
Robot type: unitree_g1
Processing time: 69.88 seconds

STEP-BY-STEP TIMING:
  Step 1 - Load SMPLX:        19.13s
  Step 2 - Align FPS:         5.52s
  Step 3 - Init Retarget:     0.75s
  Step 4 - Init Visualization: 0.01s
  Step 5 - Process Frames:    42.62s (avg: 0.325s/frame)
  Step 6 - Convert Arrays:    0.00s
  Step 7 - Forward Kinematics: 1.09s
  Step 8 - Save Data:         0.03s
Status: SUCCESS
==================================================

=== SUCCESS LOG - 2025-10-14 14:51:03 ===
Input file: /data/retarget/locomotion/raw/AMASS_SMPLXG/KIT/4/WalkingStraightForward09_stageii.npz
Output file: ../robot/ik_based/pkl/013112.pkl
Robot type: unitree_g1
Processing time: 83.40 seconds

STEP-BY-STEP TIMING:
  Step 1 - Load SMPLX:        9.56s
  Step 2 - Align FPS:         7.94s
  Step 3 - Init Retarget:     0.60s
  Step 4 - Init Visualization: 0.00s
  Step 5 - Process Frames:    63.11s (avg: 0.402s/frame)
  Step 6 - Convert Arrays:    0.00s
  Step 7 - Forward Kinematics: 1.24s
  Step 8 - Save Data:         0.02s
Status: SUCCESS
==================================================

=== SUCCESS LOG - 2025-10-14 14:51:05 ===
Input file: /data/retarget/locomotion/raw/AMASS_SMPLXG/KIT/421/push_recovery_back03_stageii.npz
Output file: ../robot/ik_based/pkl/013117.pkl
Robot type: unitree_g1
Processing time: 72.00 seconds

STEP-BY-STEP TIMING:
  Step 1 - Load SMPLX:        19.20s
  Step 2 - Align FPS:         7.57s
  Step 3 - Init Retarget:     0.62s
  Step 4 - Init Visualization: 0.00s
  Step 5 - Process Frames:    41.03s (avg: 0.299s/frame)
  Step 6 - Convert Arrays:    0.00s
  Step 7 - Forward Kinematics: 1.00s
  Step 8 - Save Data:         0.04s
Status: SUCCESS
==================================================

=== SUCCESS LOG - 2025-10-14 14:51:13 ===
Input file: /data/retarget/locomotion/raw/AMASS_SMPLXG/KIT/421/push_recovery_back05_stageii.npz
Output file: ../robot/ik_based/pkl/013118.pkl
Robot type: unitree_g1
Processing time: 59.82 seconds

STEP-BY-STEP TIMING:
  Step 1 - Load SMPLX:        26.24s
  Step 2 - Align FPS:         4.97s
  Step 3 - Init Retarget:     0.86s
  Step 4 - Init Visualization: 0.00s
  Step 5 - Process Frames:    24.42s (avg: 0.230s/frame)
  Step 6 - Convert Arrays:    0.01s
  Step 7 - Forward Kinematics: 1.45s
  Step 8 - Save Data:         0.03s
Status: SUCCESS
==================================================

=== SUCCESS LOG - 2025-10-14 14:51:45 ===
Input file: /data/retarget/locomotion/raw/AMASS_SMPLXG/KIT/421/push_recovery_back09_stageii.npz
Output file: ../robot/ik_based/pkl/013122.pkl
Robot type: unitree_g1
Processing time: 54.71 seconds

STEP-BY-STEP TIMING:
  Step 1 - Load SMPLX:        13.22s
  Step 2 - Align FPS:         2.47s
  Step 3 - Init Retarget:     0.63s
  Step 4 - Init Visualization: 0.00s
  Step 5 - Process Frames:    33.49s (avg: 0.335s/frame)
  Step 6 - Convert Arrays:    0.00s
  Step 7 - Forward Kinematics: 3.23s
  Step 8 - Save Data:         0.02s
Status: SUCCESS
==================================================

=== SUCCESS LOG - 2025-10-14 14:51:46 ===
Input file: /data/retarget/locomotion/raw/AMASS_SMPLXG/KIT/421/push_recovery_back08_stageii.npz
Output file: ../robot/ik_based/pkl/013121.pkl
Robot type: unitree_g1
Processing time: 56.13 seconds

STEP-BY-STEP TIMING:
  Step 1 - Load SMPLX:        13.20s
  Step 2 - Align FPS:         3.92s
  Step 3 - Init Retarget:     0.39s
  Step 4 - Init Visualization: 0.01s
  Step 5 - Process Frames:    34.74s (avg: 0.347s/frame)
  Step 6 - Convert Arrays:    0.02s
  Step 7 - Forward Kinematics: 2.06s
  Step 8 - Save Data:         0.05s
Status: SUCCESS
==================================================

=== SUCCESS LOG - 2025-10-14 14:51:47 ===
Input file: /data/retarget/locomotion/raw/AMASS_SMPLXG/KIT/421/push_recovery_back06_stageii.npz
Output file: ../robot/ik_based/pkl/013119.pkl
Robot type: unitree_g1
Processing time: 61.36 seconds

STEP-BY-STEP TIMING:
  Step 1 - Load SMPLX:        14.72s
  Step 2 - Align FPS:         2.42s
  Step 3 - Init Retarget:     0.47s
  Step 4 - Init Visualization: 0.00s
  Step 5 - Process Frames:    39.69s (avg: 0.336s/frame)
  Step 6 - Convert Arrays:    0.01s
  Step 7 - Forward Kinematics: 1.93s
  Step 8 - Save Data:         0.06s
Status: SUCCESS
==================================================

=== SUCCESS LOG - 2025-10-14 14:51:50 ===
Input file: /data/retarget/locomotion/raw/AMASS_SMPLXG/KIT/421/push_recovery_back07_stageii.npz
Output file: ../robot/ik_based/pkl/013120.pkl
Robot type: unitree_g1
Processing time: 60.58 seconds

STEP-BY-STEP TIMING:
  Step 1 - Load SMPLX:        13.38s
  Step 2 - Align FPS:         3.13s
  Step 3 - Init Retarget:     0.50s
  Step 4 - Init Visualization: 0.01s
  Step 5 - Process Frames:    39.77s (avg: 0.318s/frame)
  Step 6 - Convert Arrays:    0.00s
  Step 7 - Forward Kinematics: 2.11s
  Step 8 - Save Data:         0.04s
Status: SUCCESS
==================================================

=== SUCCESS LOG - 2025-10-14 14:51:52 ===
Input file: /data/retarget/locomotion/raw/AMASS_SMPLXG/KIT/421/push_recovery_back10_stageii.npz
Output file: ../robot/ik_based/pkl/013123.pkl
Robot type: unitree_g1
Processing time: 54.28 seconds

STEP-BY-STEP TIMING:
  Step 1 - Load SMPLX:        12.99s
  Step 2 - Align FPS:         2.24s
  Step 3 - Init Retarget:     0.63s
  Step 4 - Init Visualization: 0.00s
  Step 5 - Process Frames:    34.93s (avg: 0.349s/frame)
  Step 6 - Convert Arrays:    0.00s
  Step 7 - Forward Kinematics: 1.98s
  Step 8 - Save Data:         0.04s
Status: SUCCESS
==================================================

=== SUCCESS LOG - 2025-10-14 14:52:26 ===
Input file: /data/retarget/locomotion/raw/AMASS_SMPLXG/KIT/421/push_recovery_front04_stageii.npz
Output file: ../robot/ik_based/pkl/013127.pkl
Robot type: unitree_g1
Processing time: 80.39 seconds

STEP-BY-STEP TIMING:
  Step 1 - Load SMPLX:        13.91s
  Step 2 - Align FPS:         8.03s
  Step 3 - Init Retarget:     1.97s
  Step 4 - Init Visualization: 0.00s
  Step 5 - Process Frames:    50.52s (avg: 0.324s/frame)
  Step 6 - Convert Arrays:    0.01s
  Step 7 - Forward Kinematics: 3.59s
  Step 8 - Save Data:         0.03s
Status: SUCCESS
==================================================

=== SUCCESS LOG - 2025-10-14 14:52:30 ===
Input file: /data/retarget/locomotion/raw/AMASS_SMPLXG/KIT/421/push_recovery_front03_stageii.npz
Output file: ../robot/ik_based/pkl/013126.pkl
Robot type: unitree_g1
Processing time: 86.74 seconds

STEP-BY-STEP TIMING:
[...]
Output file: ../robot/ik_based/pkl/014896.pkl
Robot type: unitree_g1
Processing time: 473.09 seconds

STEP-BY-STEP TIMING:
  Step 1 - Load SMPLX:        20.27s
  Step 2 - Align FPS:         14.90s
  Step 3 - Init Retarget:     0.54s
  Step 4 - Init Visualization: 0.00s
  Step 5 - Process Frames:    431.80s (avg: 1.099s/frame)
  Step 6 - Convert Arrays:    0.00s
  Step 7 - Forward Kinematics: 3.07s
  Step 8 - Save Data:         0.08s
Status: SUCCESS
==================================================

=== SUCCESS LOG - 2025-10-14 20:57:26 ===
Input file: /data/retarget/locomotion/raw/AMASS_SMPLXG/KIT/955/wipe_back_dabbing02_stageii.npz
Output file: ../robot/ik_based/pkl/014900.pkl
Robot type: unitree_g1
Processing time: 385.58 seconds

STEP-BY-STEP TIMING:
  Step 1 - Load SMPLX:        15.81s
  Step 2 - Align FPS:         11.42s
  Step 3 - Init Retarget:     0.47s
  Step 4 - Init Visualization: 0.00s
  Step 5 - Process Frames:    353.95s (avg: 1.326s/frame)
  Step 6 - Convert Arrays:    0.00s
  Step 7 - Forward Kinematics: 1.56s
  Step 8 - Save Data:         0.04s
Status: SUCCESS
==================================================

=== SUCCESS LOG - 2025-10-14 20:57:39 ===
Input file: /data/retarget/locomotion/raw/AMASS_SMPLXG/KIT/955/wipe_back_bigcircles03_stageii.npz
Output file: ../robot/ik_based/pkl/014898.pkl
Robot type: unitree_g1
Processing time: 482.73 seconds

STEP-BY-STEP TIMING:
  Step 1 - Load SMPLX:        18.55s
  Step 2 - Align FPS:         16.52s
  Step 3 - Init Retarget:     0.87s
  Step 4 - Init Visualization: 0.00s
  Step 5 - Process Frames:    439.46s (avg: 1.256s/frame)
  Step 6 - Convert Arrays:    0.00s
  Step 7 - Forward Kinematics: 3.96s
  Step 8 - Save Data:         0.06s
Status: SUCCESS
==================================================

=== SUCCESS LOG - 2025-10-14 20:58:00 ===
Input file: /data/retarget/locomotion/raw/AMASS_SMPLXG/KIT/955/wipe_leg_smallcircles01_stageii.npz
Output file: ../robot/ik_based/pkl/014915.pkl
Robot type: unitree_g1
Processing time: 223.41 seconds

STEP-BY-STEP TIMING:
  Step 1 - Load SMPLX:        18.79s
  Step 2 - Align FPS:         13.00s
  Step 3 - Init Retarget:     0.55s
  Step 4 - Init Visualization: 0.01s
  Step 5 - Process Frames:    185.57s (avg: 0.546s/frame)
  Step 6 - Convert Arrays:    0.00s
  Step 7 - Forward Kinematics: 3.25s
  Step 8 - Save Data:         0.01s
Status: SUCCESS
==================================================

=== SUCCESS LOG - 2025-10-14 20:58:03 ===
Input file: /data/retarget/locomotion/raw/AMASS_SMPLXG/KIT/955/wipe_leg_dabbing03_stageii.npz
Output file: ../robot/ik_based/pkl/014914.pkl
Robot type: unitree_g1
Processing time: 234.71 seconds

STEP-BY-STEP TIMING:
  Step 1 - Load SMPLX:        17.79s
  Step 2 - Align FPS:         11.25s
  Step 3 - Init Retarget:     0.66s
  Step 4 - Init Visualization: 0.01s
  Step 5 - Process Frames:    200.79s (avg: 0.826s/frame)
  Step 6 - Convert Arrays:    0.00s
  Step 7 - Forward Kinematics: 2.59s
  Step 8 - Save Data:         0.12s
Status: SUCCESS
==================================================

=== SUCCESS LOG - 2025-10-14 20:59:49 ===
Input file: /data/retarget/locomotion/raw/AMASS_SMPLXG/KIT/955/wipe_leg_bigcircles01_stageii.npz
Output file: ../robot/ik_based/pkl/014911.pkl
Robot type: unitree_g1
Processing time: 393.90 seconds

STEP-BY-STEP TIMING:
  Step 1 - Load SMPLX:        16.53s
  Step 2 - Align FPS:         12.32s
  Step 3 - Init Retarget:     0.58s
  Step 4 - Init Visualization: 0.00s
  Step 5 - Process Frames:    352.54s (avg: 1.277s/frame)
  Step 6 - Convert Arrays:    0.01s
  Step 7 - Forward Kinematics: 8.30s
  Step 8 - Save Data:         0.05s
Status: SUCCESS
==================================================

=== SUCCESS LOG - 2025-10-14 21:00:04 ===
Input file: /data/retarget/locomotion/raw/AMASS_SMPLXG/KIT/955/wipe_leg_dabbing02_stageii.npz
Output file: ../robot/ik_based/pkl/014913.pkl
Robot type: unitree_g1
Processing time: 393.79 seconds

STEP-BY-STEP TIMING:
  Step 1 - Load SMPLX:        21.15s
  Step 2 - Align FPS:         10.77s
  Step 3 - Init Retarget:     0.68s
  Step 4 - Init Visualization: 0.00s
  Step 5 - Process Frames:    357.19s (avg: 1.452s/frame)
  Step 6 - Convert Arrays:    0.00s
  Step 7 - Forward Kinematics: 2.00s
  Step 8 - Save Data:         0.03s
Status: SUCCESS
==================================================

=== SUCCESS LOG - 2025-10-14 21:01:11 ===
Input file: /data/retarget/locomotion/raw/AMASS_SMPLXG/KIT/955/wipe_leg_dabbing01_stageii.npz
Output file: ../robot/ik_based/pkl/014912.pkl
Robot type: unitree_g1
Processing time: 470.69 seconds

STEP-BY-STEP TIMING:
  Step 1 - Load SMPLX:        17.59s
  Step 2 - Align FPS:         10.88s
  Step 3 - Init Retarget:     0.51s
  Step 4 - Init Visualization: 0.01s
  Step 5 - Process Frames:    433.10s (avg: 1.581s/frame)
  Step 6 - Convert Arrays:    0.01s
  Step 7 - Forward Kinematics: 4.38s
  Step 8 - Save Data:         0.08s
Status: SUCCESS
==================================================

=== SUCCESS LOG - 2025-10-14 21:03:17 ===
Input file: /data/retarget/locomotion/raw/AMASS_SMPLXG/KIT/955/wipe_leg_vertical01_stageii.npz
Output file: ../robot/ik_based/pkl/014917.pkl
Robot type: unitree_g1
Processing time: 487.51 seconds

STEP-BY-STEP TIMING:
  Step 1 - Load SMPLX:        19.85s
  Step 2 - Align FPS:         13.49s
  Step 3 - Init Retarget:     0.47s
  Step 4 - Init Visualization: 0.00s
  Step 5 - Process Frames:    451.35s (avg: 1.653s/frame)
  Step 6 - Convert Arrays:    0.01s
  Step 7 - Forward Kinematics: 1.54s
  Step 8 - Save Data:         0.03s
Status: SUCCESS
==================================================

=== ERROR LOG - 2025-10-14 21:03:39 ===
Input file: /data/retarget/locomotion/raw/AMASS_SMPLXG/KIT/965/male_stagei.npz
Output file: ../robot/ik_based/pkl/014926.pkl
Robot type: unitree_g1
Processing time: 21.40 seconds
Error message: 'pose_body is not a file in the archive'
Error type: KeyError
==================================================

=== SUCCESS LOG - 2025-10-14 21:03:48 ===
Input file: /data/retarget/locomotion/raw/AMASS_SMPLXG/KIT/955/wipe_leg_smallcircles02_stageii.npz
Output file: ../robot/ik_based/pkl/014916.pkl
Robot type: unitree_g1
Processing time: 538.70 seconds

STEP-BY-STEP TIMING:
  Step 1 - Load SMPLX:        18.40s
  Step 2 - Align FPS:         12.76s
  Step 3 - Init Retarget:     0.66s
  Step 4 - Init Visualization: 0.00s
  Step 5 - Process Frames:    501.69s (avg: 1.718s/frame)
  Step 6 - Convert Arrays:    0.00s
  Step 7 - Forward Kinematics: 2.78s
  Step 8 - Save Data:         0.09s
Status: SUCCESS
==================================================

=== SUCCESS LOG - 2025-10-14 21:10:28 ===
Input file: /data/retarget/locomotion/raw/AMASS_SMPLXG/KIT/965/Experiment3a_02_stageii.npz
Output file: ../robot/ik_based/pkl/014918.pkl
Robot type: unitree_g1
Processing time: 844.25 seconds

STEP-BY-STEP TIMING:
  Step 1 - Load SMPLX:        20.99s
  Step 2 - Align FPS:         51.38s
  Step 3 - Init Retarget:     0.48s
  Step 4 - Init Visualization: 0.00s
  Step 5 - Process Frames:    765.96s (avg: 0.616s/frame)
  Step 6 - Convert Arrays:    0.01s
  Step 7 - Forward Kinematics: 3.09s
  Step 8 - Save Data:         0.08s
Status: SUCCESS
==================================================

=== SUCCESS LOG - 2025-10-14 21:14:55 ===
Input file: /data/retarget/locomotion/raw/AMASS_SMPLXG/KIT/965/Experiment3a_03_stageii.npz
Output file: ../robot/ik_based/pkl/014919.pkl
Robot type: unitree_g1
Processing time: 1048.24 seconds

STEP-BY-STEP TIMING:
  Step 1 - Load SMPLX:        22.10s
  Step 2 - Align FPS:         76.09s
  Step 3 - Init Retarget:     0.77s
  Step 4 - Init Visualization: 0.00s
  Step 5 - Process Frames:    945.53s (avg: 0.546s/frame)
  Step 6 - Convert Arrays:    0.01s
  Step 7 - Forward Kinematics: 2.33s
  Step 8 - Save Data:         0.04s
Status: SUCCESS
==================================================

=== SUCCESS LOG - 2025-10-14 21:17:45 ===
Input file: /data/retarget/locomotion/raw/AMASS_SMPLXG/KIT/965/Experiment3a_05_stageii.npz
Output file: ../robot/ik_based/pkl/014920.pkl
Robot type: unitree_g1
Processing time: 1205.36 seconds

STEP-BY-STEP TIMING:
  Step 1 - Load SMPLX:        21.54s
  Step 2 - Align FPS:         105.60s
  Step 3 - Init Retarget:     0.71s
  Step 4 - Init Visualization: 0.00s
  Step 5 - Process Frames:    1073.33s (avg: 0.500s/frame)
  Step 6 - Convert Arrays:    0.01s
  Step 7 - Forward Kinematics: 2.03s
  Step 8 - Save Data:         0.09s
Status: SUCCESS
==================================================

=== SUCCESS LOG - 2025-10-14 21:21:55 ===
Input file: /data/retarget/locomotion/raw/AMASS_SMPLXG/KIT/969/Trial_07_stageii.npz
Output file: ../robot/ik_based/pkl/014931.pkl
Robot type: unitree_g1
Processing time: 248.36 seconds

STEP-BY-STEP TIMING:
  Step 1 - Load SMPLX:        28.66s
  Step 2 - Align FPS:         15.10s
  Step 3 - Init Retarget:     0.53s
  Step 4 - Init Visualization: 0.00s
  Step 5 - Process Frames:    198.59s (avg: 0.514s/frame)
  Step 6 - Convert Arrays:    0.00s
  Step 7 - Forward Kinematics: 2.99s
  Step 8 - Save Data:         0.05s
Status: SUCCESS
==================================================

=== SUCCESS LOG - 2025-10-14 21:23:30 ===
Input file: /data/retarget/locomotion/raw/AMASS_SMPLXG/KIT/965/Experiment3b_05_stageii.npz
Output file: ../robot/ik_based/pkl/014925.pkl
Robot type: unitree_g1
Processing time: 1338.25 seconds

STEP-BY-STEP TIMING:
  Step 1 - Load SMPLX:        29.45s
  Step 2 - Align FPS:         107.20s
  Step 3 - Init Retarget:     0.49s
  Step 4 - Init Visualization: 0.00s
  Step 5 - Process Frames:    1196.05s (avg: 0.512s/frame)
  Step 6 - Convert Arrays:    0.01s
  Step 7 - Forward Kinematics: 2.85s
  Step 8 - Save Data:         0.09s
Status: SUCCESS
==================================================

=== SUCCESS LOG - 2025-10-14 21:26:31 ===
Input file: /data/retarget/locomotion/raw/AMASS_SMPLXG/KIT/969/Trial_08_stageii.npz
Output file: ../robot/ik_based/pkl/014932.pkl
Robot type: unitree_g1
Processing time: 274.82 seconds

STEP-BY-STEP TIMING:
  Step 1 - Load SMPLX:        19.30s
  Step 2 - Align FPS:         14.00s
  Step 3 - Init Retarget:     0.58s
  Step 4 - Init Visualization: 0.00s
  Step 5 - Process Frames:    235.57s (avg: 0.625s/frame)
  Step 6 - Convert Arrays:    0.01s
  Step 7 - Forward Kinematics: 2.96s
  Step 8 - Save Data:         0.02s
Status: SUCCESS
==================================================

=== SUCCESS LOG - 2025-10-14 21:28:12 ===
Input file: /data/retarget/locomotion/raw/AMASS_SMPLXG/KIT/969/Trial_09_stageii.npz
Output file: ../robot/ik_based/pkl/014933.pkl
Robot type: unitree_g1
Processing time: 280.50 seconds

STEP-BY-STEP TIMING:
  Step 1 - Load SMPLX:        20.39s
  Step 2 - Align FPS:         16.65s
  Step 3 - Init Retarget:     0.56s
  Step 4 - Init Visualization: 0.00s
  Step 5 - Process Frames:    237.49s (avg: 0.618s/frame)
  Step 6 - Convert Arrays:    0.00s
  Step 7 - Forward Kinematics: 2.79s
  Step 8 - Save Data:         0.03s
Status: SUCCESS
==================================================

=== SUCCESS LOG - 2025-10-14 21:30:42 ===
Input file: /data/retarget/locomotion/raw/AMASS_SMPLXG/KIT/969/Trial_10_stageii.npz
Output file: ../robot/ik_based/pkl/014934.pkl
Robot type: unitree_g1
Processing time: 249.65 seconds

STEP-BY-STEP TIMING:
  Step 1 - Load SMPLX:        15.48s
  Step 2 - Align FPS:         16.19s
  Step 3 - Init Retarget:     0.51s
  Step 4 - Init Visualization: 0.00s
  Step 5 - Process Frames:    212.50s (avg: 0.558s/frame)
  Step 6 - Convert Arrays:    0.00s
  Step 7 - Forward Kinematics: 2.64s
  Step 8 - Save Data:         0.05s
Status: SUCCESS
==================================================

=== SUCCESS LOG - 2025-10-14 21:31:09 ===
Input file: /data/retarget/locomotion/raw/AMASS_SMPLXG/KIT/965/Experiment3b_02_stageii.npz
Output file: ../robot/ik_based/pkl/014924.pkl
Robot type: unitree_g1
Processing time: 1863.67 seconds

STEP-BY-STEP TIMING:
  Step 1 - Load SMPLX:        37.00s
  Step 2 - Align FPS:         137.67s
  Step 3 - Init Retarget:     0.63s
  Step 4 - Init Visualization: 0.00s
  Step 5 - Process Frames:    1682.81s (avg: 0.539s/frame)
  Step 6 - Convert Arrays:    0.02s
  Step 7 - Forward Kinematics: 3.01s
  Step 8 - Save Data:         0.13s
Status: SUCCESS
==================================================

=== SUCCESS LOG - 2025-10-14 21:32:28 ===
Input file: /data/retarget/locomotion/raw/AMASS_SMPLXG/KIT/969/Trial_11_stageii.npz
Output file: ../robot/ik_based/pkl/014935.pkl
Robot type: unitree_g1
Processing time: 254.70 seconds

STEP-BY-STEP TIMING:
  Step 1 - Load SMPLX:        20.57s
  Step 2 - Align FPS:         13.70s
  Step 3 - Init Retarget:     0.51s
  Step 4 - Init Visualization: 0.00s
  Step 5 - Process Frames:    215.21s (avg: 0.583s/frame)
  Step 6 - Convert Arrays:    0.06s
  Step 7 - Forward Kinematics: 2.33s
  Step 8 - Save Data:         0.05s
Status: SUCCESS
==================================================

=== SUCCESS LOG - 2025-10-14 21:33:04 ===
Input file: /data/retarget/locomotion/raw/AMASS_SMPLXG/KIT/965/Experiment3a_08_stageii.npz
Output file: ../robot/ik_based/pkl/014922.pkl
Robot type: unitree_g1
Processing time: 2099.64 seconds

STEP-BY-STEP TIMING:
  Step 1 - Load SMPLX:        31.17s
  Step 2 - Align FPS:         114.51s
  Step 3 - Init Retarget:     0.55s
  Step 4 - Init Visualization: 0.00s
  Step 5 - Process Frames:    1947.77s (avg: 0.652s/frame)
  Step 6 - Convert Arrays:    0.02s
  Step 7 - Forward Kinematics: 3.26s
  Step 8 - Save Data:         0.04s
Status: SUCCESS
==================================================

=== SUCCESS LOG - 2025-10-14 21:33:44 ===
Input file: /data/retarget/locomotion/raw/AMASS_SMPLXG/KIT/965/Experiment3a_07_stageii.npz
Output file: ../robot/ik_based/pkl/014921.pkl
Robot type: unitree_g1
Processing time: 2142.98 seconds

STEP-BY-STEP TIMING:
  Step 1 - Load SMPLX:        26.78s
  Step 2 - Align FPS:         115.26s
  Step 3 - Init Retarget:     0.67s
  Step 4 - Init Visualization: 0.00s
  Step 5 - Process Frames:    1994.12s (avg: 0.686s/frame)
  Step 6 - Convert Arrays:    0.03s
  Step 7 - Forward Kinematics: 2.93s
  Step 8 - Save Data:         0.05s
Status: SUCCESS
==================================================

=== SUCCESS LOG - 2025-10-14 21:34:26 ===
Input file: /data/retarget/locomotion/raw/AMASS_SMPLXG/KIT/969/Trial_12_stageii.npz
Output file: ../robot/ik_based/pkl/014936.pkl
Robot type: unitree_g1
Processing time: 222.61 seconds

STEP-BY-STEP TIMING:
  Step 1 - Load SMPLX:        21.12s
  Step 2 - Align FPS:         13.80s
  Step 3 - Init Retarget:     0.64s
  Step 4 - Init Visualization: 0.00s
  Step 5 - Process Frames:    182.65s (avg: 0.559s/frame)
  Step 6 - Convert Arrays:    0.01s
  Step 7 - Forward Kinematics: 1.96s
  Step 8 - Save Data:         0.03s
Status: SUCCESS
==================================================

=== SUCCESS LOG - 2025-10-14 21:34:50 ===
Input file: /data/retarget/locomotion/raw/AMASS_SMPLXG/KIT/965/Experiment3a_09_stageii.npz
Output file: ../robot/ik_based/pkl/014923.pkl
Robot type: unitree_g1
Processing time: 2100.28 seconds

STEP-BY-STEP TIMING:
  Step 1 - Load SMPLX:        22.20s
  Step 2 - Align FPS:         129.52s
  Step 3 - Init Retarget:     0.61s
  Step 4 - Init Visualization: 0.00s
  Step 5 - Process Frames:    1942.29s (avg: 0.675s/frame)
  Step 6 - Convert Arrays:    0.03s
  Step 7 - Forward Kinematics: 2.52s
  Step 8 - Save Data:         0.10s
Status: SUCCESS
==================================================

=== SUCCESS LOG - 2025-10-14 21:36:34 ===
Input file: /data/retarget/locomotion/raw/AMASS_SMPLXG/KIT/969/Trial_13_stageii.npz
Output file: ../robot/ik_based/pkl/014937.pkl
Robot type: unitree_g1
Processing time: 323.46 seconds

STEP-BY-STEP TIMING:
  Step 1 - Load SMPLX:        20.65s
  Step 2 - Align FPS:         14.26s
  Step 3 - Init Retarget:     0.51s
  Step 4 - Init Visualization: 0.00s
  Step 5 - Process Frames:    282.37s (avg: 0.784s/frame)
  Step 6 - Convert Arrays:    0.01s
  Step 7 - Forward Kinematics: 2.95s
  Step 8 - Save Data:         0.07s
Status: SUCCESS
==================================================

=== SUCCESS LOG - 2025-10-14 21:36:55 ===
Input file: /data/retarget/locomotion/raw/AMASS_SMPLXG/KIT/969/Trial_14_stageii.npz
Output file: ../robot/ik_based/pkl/014938.pkl
Robot type: unitree_g1
Processing time: 265.29 seconds

STEP-BY-STEP TIMING:
  Step 1 - Load SMPLX:        18.00s
  Step 2 - Align FPS:         14.03s
  Step 3 - Init Retarget:     0.47s
  Step 4 - Init Visualization: 0.00s
  Step 5 - Process Frames:    227.21s (avg: 0.538s/frame)
  Step 6 - Convert Arrays:    0.01s
  Step 7 - Forward Kinematics: 2.68s
  Step 8 - Save Data:         0.07s
Status: SUCCESS
==================================================

=== SUCCESS LOG - 2025-10-14 21:38:16 ===
Input file: /data/retarget/locomotion/raw/AMASS_SMPLXG/KIT/969/Trial_18_stageii.npz
Output file: ../robot/ik_based/pkl/014939.pkl
Robot type: unitree_g1
Processing time: 309.54 seconds

STEP-BY-STEP TIMING:
  Step 1 - Load SMPLX:        19.82s
  Step 2 - Align FPS:         16.71s
  Step 3 - Init Retarget:     1.25s
  Step 4 - Init Visualization: 0.00s
  Step 5 - Process Frames:    266.79s (avg: 0.583s/frame)
  Step 6 - Convert Arrays:    0.00s
  Step 7 - Forward Kinematics: 2.73s
  Step 8 - Save Data:         0.07s
Status: SUCCESS
==================================================

=== SUCCESS LOG - 2025-10-14 21:38:18 ===
Input file: /data/retarget/locomotion/raw/AMASS_SMPLXG/KIT/969/Trial_19_stageii.npz
Output file: ../robot/ik_based/pkl/014940.pkl
Robot type: unitree_g1
Processing time: 271.99 seconds

STEP-BY-STEP TIMING:
  Step 1 - Load SMPLX:        18.43s
  Step 2 - Align FPS:         16.75s
  Step 3 - Init Retarget:     0.53s
  Step 4 - Init Visualization: 0.00s
  Step 5 - Process Frames:    231.36s (avg: 0.583s/frame)
  Step 6 - Convert Arrays:    0.00s
  Step 7 - Forward Kinematics: 2.35s
  Step 8 - Save Data:         0.03s
Status: SUCCESS
==================================================

=== SUCCESS LOG - 2025-10-14 21:39:25 ===
Input file: /data/retarget/locomotion/raw/AMASS_SMPLXG/KIT/969/Trial_21_stageii.npz
Output file: ../robot/ik_based/pkl/014942.pkl
Robot type: unitree_g1
Processing time: 273.10 seconds

STEP-BY-STEP TIMING:
  Step 1 - Load SMPLX:        21.33s
  Step 2 - Align FPS:         17.05s
  Step 3 - Init Retarget:     0.53s
  Step 4 - Init Visualization: 0.00s
  Step 5 - Process Frames:    228.78s (avg: 0.530s/frame)
  Step 6 - Convert Arrays:    0.01s
  Step 7 - Forward Kinematics: 2.78s
  Step 8 - Save Data:         0.09s
Status: SUCCESS
==================================================

=== SUCCESS LOG - 2025-10-14 21:39:55 ===
Input file: /data/retarget/locomotion/raw/AMASS_SMPLXG/KIT/969/Trial_20_stageii.npz
Output file: ../robot/ik_based/pkl/014941.pkl
Robot type: unitree_g1
Processing time: 327.58 seconds

STEP-BY-STEP TIMING:
  Step 1 - Load SMPLX:        19.42s
  Step 2 - Align FPS:         15.94s
  Step 3 - Init Retarget:     0.67s
  Step 4 - Init Visualization: 0.00s
  Step 5 - Process Frames:    284.91s (avg: 0.675s/frame)
  Step 6 - Convert Arrays:    0.02s
  Step 7 - Forward Kinematics: 4.33s
  Step 8 - Save Data:         0.01s
Status: SUCCESS
==================================================

=== SUCCESS LOG - 2025-10-14 21:41:50 ===
Input file: /data/retarget/locomotion/raw/AMASS_SMPLXG/KIT/969/Trial_22_stageii.npz
Output file: ../robot/ik_based/pkl/014943.pkl
Robot type: unitree_g1
Processing time: 314.06 seconds

STEP-BY-STEP TIMING:
  Step 1 - Load SMPLX:        22.20s
  Step 2 - Align FPS:         13.88s
  Step 3 - Init Retarget:     0.37s
  Step 4 - Init Visualization: 0.01s
  Step 5 - Process Frames:    275.11s (avg: 0.640s/frame)
  Step 6 - Convert Arrays:    0.02s
  Step 7 - Forward Kinematics: 1.63s
  Step 8 - Save Data:         0.06s
Status: SUCCESS
==================================================
