
=== ERROR LOG - 2025-10-14 19:58:05 ===
Input file: /data/retarget/locomotion/raw/AMASS_SMPLXG/EKUT/265/male_stagei.npz
Output file: ../robot/ik_based/pkl/008083.pkl
Robot type: unitree_g1
Processing time: 2.80 seconds
Error message: 'pose_body is not a file in the archive'
Error type: KeyError
==================================================

=== ERROR LOG - 2025-10-14 19:58:06 ===
Input file: /data/retarget/locomotion/raw/AMASS_SMPLXG/Eyes_Japan_Dataset/aita/male_stagei.npz
Output file: ../robot/ik_based/pkl/008280.pkl
Robot type: unitree_g1
Processing time: 3.03 seconds
Error message: 'pose_body is not a file in the archive'
Error type: KeyError
==================================================

=== ERROR LOG - 2025-10-14 19:58:06 ===
Input file: /data/retarget/locomotion/raw/AMASS_SMPLXG/EKUT/234/male_stagei.npz
Output file: ../robot/ik_based/pkl/008011.pkl
Robot type: unitree_g1
Processing time: 3.37 seconds
Error message: 'pose_body is not a file in the archive'
Error type: KeyError
==================================================

=== ERROR LOG - 2025-10-14 19:58:06 ===
Input file: /data/retarget/locomotion/raw/AMASS_SMPLXG/EKUT/265/MTR03_stageii.npz
Output file: ../robot/ik_based/pkl/008024.pkl
Robot type: unitree_g1
Processing time: 3.48 seconds

STEP-BY-STEP TIMING (FAILED):
  Load Smplx: 3.47s
Error message: need at least one array to stack
Error type: ValueError
==================================================

=== ERROR LOG - 2025-10-14 19:58:07 ===
Input file: /data/retarget/locomotion/raw/AMASS_SMPLXG/EKUT/300/male_stagei.npz
Output file: ../robot/ik_based/pkl/008219.pkl
Robot type: unitree_g1
Processing time: 4.12 seconds
Error message: 'pose_body is not a file in the archive'
Error type: KeyError
==================================================

=== ERROR LOG - 2025-10-14 19:58:09 ===
Input file: /data/retarget/locomotion/raw/AMASS_SMPLXG/Eyes_Japan_Dataset/hamada/male_stagei.npz
Output file: ../robot/ik_based/pkl/008413.pkl
Robot type: unitree_g1
Processing time: 3.06 seconds
Error message: 'pose_body is not a file in the archive'
Error type: KeyError
==================================================

=== ERROR LOG - 2025-10-14 19:58:09 ===
Input file: /data/retarget/locomotion/raw/AMASS_SMPLXG/Eyes_Japan_Dataset/ichige/male_stagei.npz
Output file: ../robot/ik_based/pkl/008509.pkl
Robot type: unitree_g1
Processing time: 2.93 seconds
Error message: 'pose_body is not a file in the archive'
Error type: KeyError
==================================================

=== ERROR LOG - 2025-10-14 19:58:09 ===
Input file: /data/retarget/locomotion/raw/AMASS_SMPLXG/Eyes_Japan_Dataset/frederic/male_stagei.npz
Output file: ../robot/ik_based/pkl/008335.pkl
Robot type: unitree_g1
Processing time: 3.96 seconds
Error message: 'pose_body is not a file in the archive'
Error type: KeyError
==================================================

=== ERROR LOG - 2025-10-14 19:58:10 ===
Input file: /data/retarget/locomotion/raw/AMASS_SMPLXG/Eyes_Japan_Dataset/kaiwa/female_stagei.npz
Output file: ../robot/ik_based/pkl/008538.pkl
Robot type: unitree_g1
Processing time: 3.43 seconds
Error message: 'pose_body is not a file in the archive'
Error type: KeyError
==================================================

=== SUCCESS LOG - 2025-10-14 20:01:28 ===
Input file: /data/retarget/locomotion/raw/AMASS_SMPLXG/Eyes_Japan_Dataset/kaiwa/gesture_etc-31-ok-kaiwa_stageii.npz
Output file: ../robot/ik_based/pkl/008553.pkl
Robot type: unitree_g1
Processing time: 197.94 seconds

STEP-BY-STEP TIMING:
  Step 1 - Load SMPLX:        8.00s
  Step 2 - Align FPS:         34.67s
  Step 3 - Init Retarget:     0.50s
  Step 4 - Init Visualization: 0.00s
  Step 5 - Process Frames:    151.34s (avg: 0.168s/frame)
  Step 6 - Convert Arrays:    0.01s
  Step 7 - Forward Kinematics: 2.31s
  Step 8 - Save Data:         0.04s
Status: SUCCESS
==================================================

=== SUCCESS LOG - 2025-10-14 20:01:42 ===
Input file: /data/retarget/locomotion/raw/AMASS_SMPLXG/Eyes_Japan_Dataset/kaiwa/gesture_etc-30-fxxk-kaiwa_stageii.npz
Output file: ../robot/ik_based/pkl/008552.pkl
Robot type: unitree_g1
Processing time: 212.34 seconds

STEP-BY-STEP TIMING:
  Step 1 - Load SMPLX:        8.66s
  Step 2 - Align FPS:         30.59s
  Step 3 - Init Retarget:     3.90s
  Step 4 - Init Visualization: 0.02s
  Step 5 - Process Frames:    166.30s (avg: 0.185s/frame)
  Step 6 - Convert Arrays:    0.02s
  Step 7 - Forward Kinematics: 0.96s
  Step 8 - Save Data:         0.04s
Status: SUCCESS
==================================================

=== SUCCESS LOG - 2025-10-14 20:01:45 ===
Input file: /data/retarget/locomotion/raw/AMASS_SMPLXG/Eyes_Japan_Dataset/kaiwa/gesture_etc-25-magic-kaiwa_stageii.npz
Output file: ../robot/ik_based/pkl/008550.pkl
Robot type: unitree_g1
Processing time: 216.07 seconds

STEP-BY-STEP TIMING:
  Step 1 - Load SMPLX:        8.70s
  Step 2 - Align FPS:         31.67s
  Step 3 - Init Retarget:     3.21s
  Step 4 - Init Visualization: 0.00s
  Step 5 - Process Frames:    167.68s (avg: 0.186s/frame)
  Step 6 - Convert Arrays:    0.01s
  Step 7 - Forward Kinematics: 2.45s
  Step 8 - Save Data:         0.05s
Status: SUCCESS
==================================================

=== SUCCESS LOG - 2025-10-14 20:01:48 ===
Input file: /data/retarget/locomotion/raw/AMASS_SMPLXG/Eyes_Japan_Dataset/kaiwa/gesture_etc-29-pantomime-kaiwa_stageii.npz
Output file: ../robot/ik_based/pkl/008551.pkl
Robot type: unitree_g1
Processing time: 218.61 seconds

STEP-BY-STEP TIMING:
  Step 1 - Load SMPLX:        8.48s
  Step 2 - Align FPS:         33.41s
  Step 3 - Init Retarget:     1.72s
  Step 4 - Init Visualization: 0.00s
  Step 5 - Process Frames:    172.24s (avg: 0.191s/frame)
  Step 6 - Convert Arrays:    0.03s
  Step 7 - Forward Kinematics: 1.20s
  Step 8 - Save Data:         0.06s
Status: SUCCESS
==================================================

=== SUCCESS LOG - 2025-10-14 20:03:37 ===
Input file: /data/retarget/locomotion/raw/AMASS_SMPLXG/Eyes_Japan_Dataset/kaiwa/gesture_etc-24-matrix-kaiwa_stageii.npz
Output file: ../robot/ik_based/pkl/008549.pkl
Robot type: unitree_g1
Processing time: 330.21 seconds

STEP-BY-STEP TIMING:
  Step 1 - Load SMPLX:        6.34s
  Step 2 - Align FPS:         31.53s
  Step 3 - Init Retarget:     1.40s
  Step 4 - Init Visualization: 0.00s
  Step 5 - Process Frames:    288.45s (avg: 0.320s/frame)
  Step 6 - Convert Arrays:    0.01s
  Step 7 - Forward Kinematics: 1.30s
  Step 8 - Save Data:         0.03s
Status: SUCCESS
==================================================

=== SUCCESS LOG - 2025-10-14 20:05:55 ===
Input file: /data/retarget/locomotion/raw/AMASS_SMPLXG/Eyes_Japan_Dataset/kaiwa/gesture_etc-34-peace-kaiwa_stageii.npz
Output file: ../robot/ik_based/pkl/008556.pkl
Robot type: unitree_g1
Processing time: 252.11 seconds

STEP-BY-STEP TIMING:
  Step 1 - Load SMPLX:        10.63s
  Step 2 - Align FPS:         25.00s
  Step 3 - Init Retarget:     0.69s
  Step 4 - Init Visualization: 0.00s
  Step 5 - Process Frames:    214.97s (avg: 0.239s/frame)
  Step 6 - Convert Arrays:    0.00s
  Step 7 - Forward Kinematics: 0.33s
  Step 8 - Save Data:         0.04s
Status: SUCCESS
==================================================

=== SUCCESS LOG - 2025-10-14 20:06:05 ===
Input file: /data/retarget/locomotion/raw/AMASS_SMPLXG/Eyes_Japan_Dataset/kaiwa/gesture_etc-33-watch_here-kaiwa_stageii.npz
Output file: ../robot/ik_based/pkl/008555.pkl
Robot type: unitree_g1
Processing time: 276.21 seconds

STEP-BY-STEP TIMING:
  Step 1 - Load SMPLX:        11.01s
  Step 2 - Align FPS:         15.61s
  Step 3 - Init Retarget:     0.62s
  Step 4 - Init Visualization: 0.00s
  Step 5 - Process Frames:    247.20s (avg: 0.275s/frame)
  Step 6 - Convert Arrays:    0.00s
  Step 7 - Forward Kinematics: 0.92s
  Step 8 - Save Data:         0.02s
Status: SUCCESS
==================================================

=== SUCCESS LOG - 2025-10-14 20:06:33 ===
Input file: /data/retarget/locomotion/raw/AMASS_SMPLXG/Eyes_Japan_Dataset/kaiwa/gesture_etc-37-gay-kaiwa_stageii.npz
Output file: ../robot/ik_based/pkl/008558.pkl
Robot type: unitree_g1
Processing time: 284.08 seconds

STEP-BY-STEP TIMING:
  Step 1 - Load SMPLX:        12.57s
  Step 2 - Align FPS:         21.18s
  Step 3 - Init Retarget:     0.67s
  Step 4 - Init Visualization: 0.00s
  Step 5 - Process Frames:    247.86s (avg: 0.275s/frame)
  Step 6 - Convert Arrays:    0.01s
  Step 7 - Forward Kinematics: 0.94s
  Step 8 - Save Data:         0.03s
Status: SUCCESS
==================================================

=== SUCCESS LOG - 2025-10-14 20:06:55 ===
Input file: /data/retarget/locomotion/raw/AMASS_SMPLXG/Eyes_Japan_Dataset/kaiwa/gesture_etc-38-hand_language-kaiwa_stageii.npz
Output file: ../robot/ik_based/pkl/008559.pkl
Robot type: unitree_g1
Processing time: 196.74 seconds

STEP-BY-STEP TIMING:
  Step 1 - Load SMPLX:        9.78s
  Step 2 - Align FPS:         17.25s
  Step 3 - Init Retarget:     0.50s
  Step 4 - Init Visualization: 0.00s
  Step 5 - Process Frames:    166.36s (avg: 0.185s/frame)
  Step 6 - Convert Arrays:    0.01s
  Step 7 - Forward Kinematics: 1.90s
  Step 8 - Save Data:         0.02s
Status: SUCCESS
==================================================

=== SUCCESS LOG - 2025-10-14 20:07:06 ===
Input file: /data/retarget/locomotion/raw/AMASS_SMPLXG/Eyes_Japan_Dataset/kaiwa/gesture_etc-35-west_side-kaiwa_stageii.npz
Output file: ../robot/ik_based/pkl/008557.pkl
Robot type: unitree_g1
Processing time: 318.77 seconds

STEP-BY-STEP TIMING:
  Step 1 - Load SMPLX:        10.96s
  Step 2 - Align FPS:         25.90s
  Step 3 - Init Retarget:     0.44s
  Step 4 - Init Visualization: 0.00s
  Step 5 - Process Frames:    279.58s (avg: 0.311s/frame)
  Step 6 - Convert Arrays:    0.00s
  Step 7 - Forward Kinematics: 0.90s
  Step 8 - Save Data:         0.02s
Status: SUCCESS
==================================================

=== SUCCESS LOG - 2025-10-14 20:09:20 ===
Input file: /data/retarget/locomotion/raw/AMASS_SMPLXG/Eyes_Japan_Dataset/kaiwa/gesture_etc-42-hung_over-kaiwa_stageii.npz
Output file: ../robot/ik_based/pkl/008563.pkl
Robot type: unitree_g1
Processing time: 203.32 seconds

STEP-BY-STEP TIMING:
  Step 1 - Load SMPLX:        9.56s
  Step 2 - Align FPS:         18.41s
  Step 3 - Init Retarget:     0.78s
  Step 4 - Init Visualization: 0.00s
  Step 5 - Process Frames:    171.92s (avg: 0.191s/frame)
  Step 6 - Convert Arrays:    0.01s
  Step 7 - Forward Kinematics: 1.36s
  Step 8 - Save Data:         0.03s
Status: SUCCESS
==================================================

=== SUCCESS LOG - 2025-10-14 20:09:50 ===
Input file: /data/retarget/locomotion/raw/AMASS_SMPLXG/Eyes_Japan_Dataset/kaiwa/gesture_etc-43-brush_teeth-kaiwa_stageii.npz
Output file: ../robot/ik_based/pkl/008564.pkl
Robot type: unitree_g1
Processing time: 223.76 seconds

STEP-BY-STEP TIMING:
  Step 1 - Load SMPLX:        13.62s
  Step 2 - Align FPS:         19.95s
  Step 3 - Init Retarget:     0.54s
  Step 4 - Init Visualization: 0.00s
  Step 5 - Process Frames:    187.67s (avg: 0.209s/frame)
  Step 6 - Convert Arrays:    0.00s
  Step 7 - Forward Kinematics: 0.92s
  Step 8 - Save Data:         0.02s
Status: SUCCESS
==================================================

=== SUCCESS LOG - 2025-10-14 20:10:26 ===
Input file: /data/retarget/locomotion/raw/AMASS_SMPLXG/Eyes_Japan_Dataset/kaiwa/gesture_etc-47-big_drum-kaiwa_stageii.npz
Output file: ../robot/ik_based/pkl/008567.pkl
Robot type: unitree_g1
Processing time: 198.95 seconds

STEP-BY-STEP TIMING:
  Step 1 - Load SMPLX:        14.06s
  Step 2 - Align FPS:         17.60s
  Step 3 - Init Retarget:     0.50s
  Step 4 - Init Visualization: 0.00s
  Step 5 - Process Frames:    164.27s (avg: 0.183s/frame)
  Step 6 - Convert Arrays:    0.00s
  Step 7 - Forward Kinematics: 1.26s
  Step 8 - Save Data:         0.03s
Status: SUCCESS
==================================================

=== SUCCESS LOG - 2025-10-14 20:10:36 ===
Input file: /data/retarget/locomotion/raw/AMASS_SMPLXG/Eyes_Japan_Dataset/kaiwa/gesture_etc-46-vomit_of_blood-kaiwa_stageii.npz
Output file: ../robot/ik_based/pkl/008566.pkl
Robot type: unitree_g1
Processing time: 220.32 seconds

STEP-BY-STEP TIMING:
  Step 1 - Load SMPLX:        11.00s
  Step 2 - Align FPS:         23.68s
  Step 3 - Init Retarget:     0.48s
  Step 4 - Init Visualization: 0.00s
  Step 5 - Process Frames:    183.20s (avg: 0.204s/frame)
  Step 6 - Convert Arrays:    0.01s
  Step 7 - Forward Kinematics: 1.01s
  Step 8 - Save Data:         0.02s
Status: SUCCESS
==================================================

=== SUCCESS LOG - 2025-10-14 20:11:20 ===
Input file: /data/retarget/locomotion/raw/AMASS_SMPLXG/Eyes_Japan_Dataset/kaiwa/gesture_etc-45-feel_dizzy_-kaiwa_stageii.npz
Output file: ../robot/ik_based/pkl/008565.pkl
Robot type: unitree_g1
Processing time: 285.69 seconds

STEP-BY-STEP TIMING:
  Step 1 - Load SMPLX:        11.36s
  Step 2 - Align FPS:         14.51s
  Step 3 - Init Retarget:     0.47s
  Step 4 - Init Visualization: 0.00s
  Step 5 - Process Frames:    257.13s (avg: 0.286s/frame)
  Step 6 - Convert Arrays:    0.00s
  Step 7 - Forward Kinematics: 1.17s
  Step 8 - Save Data:         0.02s
Status: SUCCESS
==================================================

=== SUCCESS LOG - 2025-10-14 20:12:48 ===
Input file: /data/retarget/locomotion/raw/AMASS_SMPLXG/Eyes_Japan_Dataset/kaiwa/greeting-01-hello-kaiwa_stageii.npz
Output file: ../robot/ik_based/pkl/008570.pkl
Robot type: unitree_g1
Processing time: 207.03 seconds

STEP-BY-STEP TIMING:
  Step 1 - Load SMPLX:        10.29s
  Step 2 - Align FPS:         17.00s
  Step 3 - Init Retarget:     0.42s
  Step 4 - Init Visualization: 0.00s
  Step 5 - Process Frames:    176.89s (avg: 0.197s/frame)
  Step 6 - Convert Arrays:    0.01s
  Step 7 - Forward Kinematics: 1.33s
  Step 8 - Save Data:         0.04s
Status: SUCCESS
==================================================

=== SUCCESS LOG - 2025-10-14 20:13:13 ===
Input file: /data/retarget/locomotion/raw/AMASS_SMPLXG/Eyes_Japan_Dataset/kaiwa/greeting-02-bye-kaiwa_stageii.npz
Output file: ../robot/ik_based/pkl/008571.pkl
Robot type: unitree_g1
Processing time: 201.70 seconds

STEP-BY-STEP TIMING:
  Step 1 - Load SMPLX:        9.89s
  Step 2 - Align FPS:         15.01s
  Step 3 - Init Retarget:     0.57s
  Step 4 - Init Visualization: 0.00s
  Step 5 - Process Frames:    174.55s (avg: 0.194s/frame)
  Step 6 - Convert Arrays:    0.01s
  Step 7 - Forward Kinematics: 0.89s
  Step 8 - Save Data:         0.02s
Status: SUCCESS
==================================================

=== SUCCESS LOG - 2025-10-14 20:14:03 ===
Input file: /data/retarget/locomotion/raw/AMASS_SMPLXG/Eyes_Japan_Dataset/kaiwa/greeting-04-salute_(head)-kaiwa_stageii.npz
Output file: ../robot/ik_based/pkl/008573.pkl
Robot type: unitree_g1
Processing time: 206.21 seconds

STEP-BY-STEP TIMING:
  Step 1 - Load SMPLX:        13.04s
  Step 2 - Align FPS:         13.06s
  Step 3 - Init Retarget:     0.51s
  Step 4 - Init Visualization: 0.00s
  Step 5 - Process Frames:    177.45s (avg: 0.197s/frame)
  Step 6 - Convert Arrays:    0.00s
  Step 7 - Forward Kinematics: 1.20s
  Step 8 - Save Data:         0.03s
Status: SUCCESS
==================================================

=== SUCCESS LOG - 2025-10-14 20:14:04 ===
Input file: /data/retarget/locomotion/raw/AMASS_SMPLXG/Eyes_Japan_Dataset/kaiwa/greeting-03-election-kaiwa_stageii.npz
Output file: ../robot/ik_based/pkl/008572.pkl
Robot type: unitree_g1
Processing time: 217.03 seconds

STEP-BY-STEP TIMING:
  Step 1 - Load SMPLX:        10.36s
  Step 2 - Align FPS:         21.76s
  Step 3 - Init Retarget:     0.62s
  Step 4 - Init Visualization: 0.00s
  Step 5 - Process Frames:    182.33s (avg: 0.203s/frame)
  Step 6 - Convert Arrays:    0.00s
  Step 7 - Forward Kinematics: 0.94s
  Step 8 - Save Data:         0.01s
Status: SUCCESS
==================================================

=== SUCCESS LOG - 2025-10-14 20:14:53 ===
Input file: /data/retarget/locomotion/raw/AMASS_SMPLXG/Eyes_Japan_Dataset/kaiwa/greeting-05-salute_(chest)-kaiwa_stageii.npz
Output file: ../robot/ik_based/pkl/008574.pkl
Robot type: unitree_g1
Processing time: 212.06 seconds

STEP-BY-STEP TIMING:
  Step 1 - Load SMPLX:        9.52s
  Step 2 - Align FPS:         18.95s
  Step 3 - Init Retarget:     0.51s
  Step 4 - Init Visualization: 0.00s
  Step 5 - Process Frames:    180.65s (avg: 0.201s/frame)
  Step 6 - Convert Arrays:    0.01s
  Step 7 - Forward Kinematics: 1.24s
  Step 8 - Save Data:         0.02s
Status: SUCCESS
==================================================

=== SUCCESS LOG - 2025-10-14 20:16:11 ===
Input file: /data/retarget/locomotion/raw/AMASS_SMPLXG/Eyes_Japan_Dataset/kaiwa/greeting-09-certificate-kaiwa_stageii.npz
Output file: ../robot/ik_based/pkl/008577.pkl
Robot type: unitree_g1
Processing time: 202.83 seconds

STEP-BY-STEP TIMING:
  Step 1 - Load SMPLX:        9.81s
  Step 2 - Align FPS:         19.16s
  Step 3 - Init Retarget:     0.55s
  Step 4 - Init Visualization: 0.00s
  Step 5 - Process Frames:    170.94s (avg: 0.190s/frame)
  Step 6 - Convert Arrays:    0.01s
  Step 7 - Forward Kinematics: 1.24s
  Step 8 - Save Data:         0.03s
Status: SUCCESS
==================================================

=== SUCCESS LOG - 2025-10-14 20:16:44 ===
Input file: /data/retarget/locomotion/raw/AMASS_SMPLXG/Eyes_Japan_Dataset/kaiwa/jump-01-normal-kaiwa_stageii.npz
Output file: ../robot/ik_based/pkl/008578.pkl
Robot type: unitree_g1
Processing time: 210.98 seconds

STEP-BY-STEP TIMING:
  Step 1 - Load SMPLX:        11.79s
  Step 2 - Align FPS:         17.86s
  Step 3 - Init Retarget:     0.57s
  Step 4 - Init Visualization: 0.00s
  Step 5 - Process Frames:    178.69s (avg: 0.199s/frame)
  Step 6 - Convert Arrays:    0.01s
  Step 7 - Forward Kinematics: 0.99s
  Step 8 - Save Data:         0.03s
Status: SUCCESS
==================================================

=== SUCCESS LOG - 2025-10-14 20:17:43 ===
Input file: /data/retarget/locomotion/raw/AMASS_SMPLXG/Eyes_Japan_Dataset/kaiwa/jump-02-leap-kaiwa_stageii.npz
Output file: ../robot/ik_based/pkl/008579.pkl
Robot type: unitree_g1
Processing time: 219.26 seconds

STEP-BY-STEP TIMING:
  Step 1 - Load SMPLX:        8.92s
  Step 2 - Align FPS:         22.18s
  Step 3 - Init Retarget:     0.83s
  Step 4 - Init Visualization: 0.01s
  Step 5 - Process Frames:    185.12s (avg: 0.206s/frame)
  Step 6 - Convert Arrays:    0.01s
  Step 7 - Forward Kinematics: 1.13s
  Step 8 - Save Data:         0.03s
Status: SUCCESS
==================================================

=== SUCCESS LOG - 2025-10-14 20:18:12 ===
Input file: /data/retarget/locomotion/raw/AMASS_SMPLXG/Eyes_Japan_Dataset/kaiwa/jump-03-vertical-kaiwa_stageii.npz
Output file: ../robot/ik_based/pkl/008580.pkl
Robot type: unitree_g1
Processing time: 247.41 seconds

STEP-BY-STEP TIMING:
  Step 1 - Load SMPLX:        8.86s
  Step 2 - Align FPS:         21.69s
  Step 3 - Init Retarget:     0.80s
  Step 4 - Init Visualization: 0.00s
  Step 5 - Process Frames:    212.94s (avg: 0.237s/frame)
  Step 6 - Convert Arrays:    0.01s
  Step 7 - Forward Kinematics: 2.03s
  Step 8 - Save Data:         0.03s
Status: SUCCESS
==================================================

=== SUCCESS LOG - 2025-10-14 20:18:49 ===
Input file: /data/retarget/locomotion/raw/AMASS_SMPLXG/Eyes_Japan_Dataset/kaiwa/jump-04-horizontal-kaiwa_stageii.npz
Output file: ../robot/ik_based/pkl/008581.pkl
Robot type: unitree_g1
Processing time: 235.28 seconds

STEP-BY-STEP TIMING:
  Step 1 - Load SMPLX:        9.62s
  Step 2 - Align FPS:         20.89s
  Step 3 - Init Retarget:     0.51s
  Step 4 - Init Visualization: 0.00s
  Step 5 - Process Frames:    202.43s (avg: 0.225s/frame)
  Step 6 - Convert Arrays:    0.01s
  Step 7 - Forward Kinematics: 1.06s
  Step 8 - Save Data:         0.03s
Status: SUCCESS
==================================================

=== SUCCESS LOG - 2025-10-14 20:20:11 ===
Input file: /data/retarget/locomotion/raw/AMASS_SMPLXG/Eyes_Japan_Dataset/kaiwa/pain-01-headache-kaiwa_stageii.npz
Output file: ../robot/ik_based/pkl/008584.pkl
Robot type: unitree_g1
Processing time: 205.37 seconds

STEP-BY-STEP TIMING:
  Step 1 - Load SMPLX:        9.76s
  Step 2 - Align FPS:         16.33s
  Step 3 - Init Retarget:     0.54s
  Step 4 - Init Visualization: 0.00s
  Step 5 - Process Frames:    176.56s (avg: 0.196s/frame)
  Step 6 - Convert Arrays:    0.01s
  Step 7 - Forward Kinematics: 1.33s
  Step 8 - Save Data:         0.02s
Status: SUCCESS
==================================================

=== SUCCESS LOG - 2025-10-14 20:20:12 ===
Input file: /data/retarget/locomotion/raw/AMASS_SMPLXG/Eyes_Japan_Dataset/kaiwa/jump-13-matrix-kaiwa_stageii.npz
Output file: ../robot/ik_based/pkl/008583.pkl
Robot type: unitree_g1
Processing time: 239.38 seconds

STEP-BY-STEP TIMING:
  Step 1 - Load SMPLX:        9.37s
  Step 2 - Align FPS:         18.23s
  Step 3 - Init Retarget:     0.69s
  Step 4 - Init Visualization: 0.00s
  Step 5 - Process Frames:    208.74s (avg: 0.232s/frame)
  Step 6 - Convert Arrays:    0.00s
  Step 7 - Forward Kinematics: 1.17s
  Step 8 - Save Data:         0.01s
Status: SUCCESS
==================================================

=== SUCCESS LOG - 2025-10-14 20:22:04 ===
Input file: /data/retarget/locomotion/raw/AMASS_SMPLXG/Eyes_Japan_Dataset/kaiwa/pose-01-normal-kaiwa_stageii.npz
Output file: ../robot/ik_based/pkl/008587.pkl
Robot type: unitree_g1
Processing time: 231.22 seconds

STEP-BY-STEP TIMING:
  Step 1 - Load SMPLX:        9.67s
  Step 2 - Align FPS:         18.80s
  Step 3 - Init Retarget:     0.50s
  Step 4 - Init Visualization: 0.00s
  Step 5 - Process Frames:    200.07s (avg: 0.222s/frame)
  Step 6 - Convert Arrays:    0.01s
  Step 7 - Forward Kinematics: 1.08s
  Step 8 - Save Data:         0.02s
Status: SUCCESS
==================================================

=== SUCCESS LOG - 2025-10-14 20:22:25 ===
Input file: /data/retarget/locomotion/raw/AMASS_SMPLXG/Eyes_Japan_Dataset/kaiwa/pain-07-arthritic-kaiwa_stageii.npz
Output file: ../robot/ik_based/pkl/008586.pkl
Robot type: unitree_g1
Processing time: 281.15 seconds

STEP-BY-STEP TIMING:
  Step 1 - Load SMPLX:        9.77s
  Step 2 - Align FPS:         17.00s
  Step 3 - Init Retarget:     0.40s
  Step 4 - Init Visualization: 0.00s
  Step 5 - Process Frames:    251.80s (avg: 0.280s/frame)
  Step 6 - Convert Arrays:    0.01s
  Step 7 - Forward Kinematics: 1.23s
  Step 8 - Save Data:         0.03s
Status: SUCCESS
==================================================

=== SUCCESS LOG - 2025-10-14 20:23:11 ===
Input file: /data/retarget/locomotion/raw/AMASS_SMPLXG/Eyes_Japan_Dataset/kaiwa/pose-02-rest-kaiwa_stageii.npz
Output file: ../robot/ik_based/pkl/008588.pkl
Robot type: unitree_g1
Processing time: 261.02 seconds

STEP-BY-STEP TIMING:
  Step 1 - Load SMPLX:        9.78s
  Step 2 - Align FPS:         16.55s
  Step 3 - Init Retarget:     0.45s
  Step 4 - Init Visualization: 0.00s
  Step 5 - Process Frames:    232.40s (avg: 0.258s/frame)
  Step 6 - Convert Arrays:    0.00s
  Step 7 - Forward Kinematics: 1.04s
  Step 8 - Save Data:         0.04s
Status: SUCCESS
==================================================

=== SUCCESS LOG - 2025-10-14 20:24:00 ===
Input file: /data/retarget/locomotion/raw/AMASS_SMPLXG/Eyes_Japan_Dataset/kaiwa/pose-05-cross_leg-kaiwa_stageii.npz
Output file: ../robot/ik_based/pkl/008591.pkl
Robot type: unitree_g1
Processing time: 227.44 seconds

STEP-BY-STEP TIMING:
  Step 1 - Load SMPLX:        8.42s
  Step 2 - Align FPS:         21.63s
  Step 3 - Init Retarget:     0.48s
  Step 4 - Init Visualization: 0.00s
  Step 5 - Process Frames:    194.75s (avg: 0.216s/frame)
  Step 6 - Convert Arrays:    0.00s
  Step 7 - Forward Kinematics: 1.24s
  Step 8 - Save Data:         0.02s
Status: SUCCESS
==================================================

=== SUCCESS LOG - 2025-10-14 20:24:46 ===
Input file: /data/retarget/locomotion/raw/AMASS_SMPLXG/Eyes_Japan_Dataset/kaiwa/pose-04-drank-kaiwa_stageii.npz
Output file: ../robot/ik_based/pkl/008590.pkl
Robot type: unitree_g1
Processing time: 274.50 seconds

STEP-BY-STEP TIMING:
  Step 1 - Load SMPLX:        8.59s
  Step 2 - Align FPS:         19.54s
  Step 3 - Init Retarget:     0.42s
  Step 4 - Init Visualization: 0.00s
  Step 5 - Process Frames:    243.72s (avg: 0.271s/frame)
  Step 6 - Convert Arrays:    0.00s
  Step 7 - Forward Kinematics: 1.17s
  Step 8 - Save Data:         0.03s
Status: SUCCESS
==================================================

=== SUCCESS LOG - 2025-10-14 20:25:27 ===
Input file: /data/retarget/locomotion/raw/AMASS_SMPLXG/Eyes_Japan_Dataset/kaiwa/pose-09-pray_buddhism-kaiwa_stageii.npz
Output file: ../robot/ik_based/pkl/008594.pkl
Robot type: unitree_g1
Processing time: 202.43 seconds

STEP-BY-STEP TIMING:
  Step 1 - Load SMPLX:        9.22s
  Step 2 - Align FPS:         17.57s
  Step 3 - Init Retarget:     0.47s
  Step 4 - Init Visualization: 0.00s
  Step 5 - Process Frames:    172.28s (avg: 0.209s/frame)
  Step 6 - Convert Arrays:    0.00s
  Step 7 - Forward Kinematics: 1.75s
  Step 8 - Save Data:         0.03s
Status: SUCCESS
==================================================

=== SUCCESS LOG - 2025-10-14 20:26:32 ===
Input file: /data/retarget/locomotion/raw/AMASS_SMPLXG/Eyes_Japan_Dataset/kaiwa/pose-10-recall_blackmagic-kaiwa_stageii.npz
Output file: ../robot/ik_based/pkl/008595.pkl
Robot type: unitree_g1
Processing time: 245.86 seconds

STEP-BY-STEP TIMING:
  Step 1 - Load SMPLX:        11.23s
  Step 2 - Align FPS:         16.05s
  Step 3 - Init Retarget:     0.46s
  Step 4 - Init Visualization: 0.01s
  Step 5 - Process Frames:    216.33s (avg: 0.240s/frame)
  Step 6 - Convert Arrays:    0.00s
  Step 7 - Forward Kinematics: 0.79s
  Step 8 - Save Data:         0.03s
Status: SUCCESS
==================================================

=== SUCCESS LOG - 2025-10-14 20:28:25 ===
Input file: /data/retarget/locomotion/raw/AMASS_SMPLXG/Eyes_Japan_Dataset/kaiwa/pose-11-bended_knees-kaiwa_stageii.npz
Output file: ../robot/ik_based/pkl/008596.pkl
Robot type: unitree_g1
Processing time: 313.01 seconds

STEP-BY-STEP TIMING:
  Step 1 - Load SMPLX:        9.99s
  Step 2 - Align FPS:         15.27s
  Step 3 - Init Retarget:     0.38s
  Step 4 - Init Visualization: 0.00s
  Step 5 - Process Frames:    285.08s (avg: 0.317s/frame)
  Step 6 - Convert Arrays:    0.01s
  Step 7 - Forward Kinematics: 1.21s
  Step 8 - Save Data:         0.03s
Status: SUCCESS
==================================================

=== SUCCESS LOG - 2025-10-14 20:28:29 ===
Input file: /data/retarget/locomotion/raw/AMASS_SMPLXG/Eyes_Japan_Dataset/kaiwa/pose-12-body_building-kaiwa_stageii.npz
Output file: ../robot/ik_based/pkl/008597.pkl
Robot type: unitree_g1
Processing time: 268.64 seconds

STEP-BY-STEP TIMING:
  Step 1 - Load SMPLX:        9.51s
  Step 2 - Align FPS:         17.52s
  Step 3 - Init Retarget:     0.43s
  Step 4 - Init Visualization: 0.00s
  Step 5 - Process Frames:    239.46s (avg: 0.266s/frame)
  Step 6 - Convert Arrays:    0.00s
  Step 7 - Forward Kinematics: 0.90s
  Step 8 - Save Data:         0.02s
Status: SUCCESS
==================================================

=== SUCCESS LOG - 2025-10-14 20:28:54 ===
Input file: /data/retarget/locomotion/raw/AMASS_SMPLXG/Eyes_Japan_Dataset/kaiwa/pose-13-model-kaiwa_stageii.npz
Output file: ../robot/ik_based/pkl/008598.pkl
Robot type: unitree_g1
Processing time: 247.48 seconds

STEP-BY-STEP TIMING:
  Step 1 - Load SMPLX:        9.47s
  Step 2 - Align FPS:         15.19s
  Step 3 - Init Retarget:     0.39s
  Step 4 - Init Visualization: 0.00s
  Step 5 - Process Frames:    219.79s (avg: 0.244s/frame)
  Step 6 - Convert Arrays:    0.00s
  Step 7 - Forward Kinematics: 0.97s
  Step 8 - Save Data:         0.02s
Status: SUCCESS
==================================================

=== SUCCESS LOG - 2025-10-14 20:29:06 ===
Input file: /data/retarget/locomotion/raw/AMASS_SMPLXG/Eyes_Japan_Dataset/kaiwa/pose-15-look_down-kaiwa_stageii.npz
Output file: ../robot/ik_based/pkl/008600.pkl
Robot type: unitree_g1
Processing time: 218.28 seconds

STEP-BY-STEP TIMING:
  Step 1 - Load SMPLX:        9.78s
  Step 2 - Align FPS:         13.64s
  Step 3 - Init Retarget:     0.40s
  Step 4 - Init Visualization: 0.01s
  Step 5 - Process Frames:    192.43s (avg: 0.214s/frame)
  Step 6 - Convert Arrays:    0.00s
  Step 7 - Forward Kinematics: 0.90s
  Step 8 - Save Data:         0.05s
Status: SUCCESS
==================================================

=== SUCCESS LOG - 2025-10-14 20:30:19 ===
Input file: /data/retarget/locomotion/raw/AMASS_SMPLXG/Eyes_Japan_Dataset/kaiwa/pose-18-applause-kaiwa_stageii.npz
Output file: ../robot/ik_based/pkl/008602.pkl
Robot type: unitree_g1
Processing time: 225.66 seconds

STEP-BY-STEP TIMING:
  Step 1 - Load SMPLX:        9.41s
  Step 2 - Align FPS:         17.09s
  Step 3 - Init Retarget:     0.37s
  Step 4 - Init Visualization: 0.00s
  Step 5 - Process Frames:    196.70s (avg: 0.219s/frame)
  Step 6 - Convert Arrays:    0.01s
  Step 7 - Forward Kinematics: 1.04s
  Step 8 - Save Data:         0.03s
Status: SUCCESS
==================================================

=== SUCCESS LOG - 2025-10-14 20:32:38 ===
Input file: /data/retarget/locomotion/raw/AMASS_SMPLXG/Eyes_Japan_Dataset/kaiwa/tennis-06-forehand_smash-kaiwa_stageii.npz
Output file: ../robot/ik_based/pkl/008607.pkl
Robot type: unitree_g1
Processing time: 247.65 seconds

STEP-BY-STEP TIMING:
  Step 1 - Load SMPLX:        10.96s
  Step 2 - Align FPS:         19.24s
  Step 3 - Init Retarget:     0.37s
  Step 4 - Init Visualization: 0.00s
  Step 5 - Process Frames:    215.05s (avg: 0.239s/frame)
  Step 6 - Convert Arrays:    0.01s
  Step 7 - Forward Kinematics: 1.34s
  Step 8 - Save Data:         0.01s
Status: SUCCESS
==================================================

=== SUCCESS LOG - 2025-10-14 20:32:38 ===
Input file: /data/retarget/locomotion/raw/AMASS_SMPLXG/Eyes_Japan_Dataset/kaiwa/tennis-02-forehand_lob-kaiwa_stageii.npz
Output file: ../robot/ik_based/pkl/008606.pkl
Robot type: unitree_g1
Processing time: 252.82 seconds

STEP-BY-STEP TIMING:
  Step 1 - Load SMPLX:        9.05s
  Step 2 - Align FPS:         20.17s
  Step 3 - Init Retarget:     0.61s
  Step 4 - Init Visualization: 0.00s
  Step 5 - Process Frames:    221.12s (avg: 0.246s/frame)
  Step 6 - Convert Arrays:    0.00s
  Step 7 - Forward Kinematics: 0.93s
  Step 8 - Save Data:         0.07s
Status: SUCCESS
==================================================

=== SUCCESS LOG - 2025-10-14 20:32:52 ===
Input file: /data/retarget/locomotion/raw/AMASS_SMPLXG/Eyes_Japan_Dataset/kaiwa/tennis-18-catch_netball-kaiwa_stageii.npz
Output file: ../robot/ik_based/pkl/008608.pkl
Robot type: unitree_g1
Processing time: 236.51 seconds

STEP-BY-STEP TIMING:
  Step 1 - Load SMPLX:        10.62s
  Step 2 - Align FPS:         16.91s
  Step 3 - Init Retarget:     0.50s
  Step 4 - Init Visualization: 0.00s
  Step 5 - Process Frames:    203.73s (avg: 0.226s/frame)
  Step 6 - Convert Arrays:    0.04s
  Step 7 - Forward Kinematics: 2.49s
  Step 8 - Save Data:         0.06s
Status: SUCCESS
==================================================

=== SUCCESS LOG - 2025-10-14 20:33:02 ===
Input file: /data/retarget/locomotion/raw/AMASS_SMPLXG/Eyes_Japan_Dataset/kaiwa/tennis-19-catch_overhead-kaiwa_stageii.npz
Output file: ../robot/ik_based/pkl/008609.pkl
Robot type: unitree_g1
Processing time: 235.12 seconds

STEP-BY-STEP TIMING:
  Step 1 - Load SMPLX:        13.03s
  Step 2 - Align FPS:         19.02s
  Step 3 - Init Retarget:     0.42s
  Step 4 - Init Visualization: 0.00s
  Step 5 - Process Frames:    201.97s (avg: 0.224s/frame)
  Step 6 - Convert Arrays:    0.00s
  Step 7 - Forward Kinematics: 0.31s
  Step 8 - Save Data:         0.01s
Status: SUCCESS
==================================================

=== SUCCESS LOG - 2025-10-14 20:34:59 ===
Input file: /data/retarget/locomotion/raw/AMASS_SMPLXG/Eyes_Japan_Dataset/kaiwa/throw_toss-09-shotput-kaiwa_stageii.npz
Output file: ../robot/ik_based/pkl/008610.pkl
Robot type: unitree_g1
Processing time: 279.37 seconds

STEP-BY-STEP TIMING:
  Step 1 - Load SMPLX:        9.16s
  Step 2 - Align FPS:         15.93s
  Step 3 - Init Retarget:     0.34s
  Step 4 - Init Visualization: 0.00s
  Step 5 - Process Frames:    251.95s (avg: 0.280s/frame)
  Step 6 - Convert Arrays:    0.01s
  Step 7 - Forward Kinematics: 0.91s
  Step 8 - Save Data:         0.03s
Status: SUCCESS
==================================================

=== SUCCESS LOG - 2025-10-14 20:36:58 ===
Input file: /data/retarget/locomotion/raw/AMASS_SMPLXG/Eyes_Japan_Dataset/kaiwa/throw_toss-14-pass_to_right_heavy-kaiwa_stageii.npz
Output file: ../robot/ik_based/pkl/008613.pkl
Robot type: unitree_g1
Processing time: 260.11 seconds

STEP-BY-STEP TIMING:
  Step 1 - Load SMPLX:        8.77s
  Step 2 - Align FPS:         18.81s
  Step 3 - Init Retarget:     0.37s
  Step 4 - Init Visualization: 0.00s
  Step 5 - Process Frames:    229.69s (avg: 0.255s/frame)
  Step 6 - Convert Arrays:    0.01s
  Step 7 - Forward Kinematics: 1.24s
  Step 8 - Save Data:         0.02s
Status: SUCCESS
==================================================

=== SUCCESS LOG - 2025-10-14 20:37:06 ===
Input file: /data/retarget/locomotion/raw/AMASS_SMPLXG/Eyes_Japan_Dataset/kaiwa/throw_toss-19-pass_to_front_light-kaiwa_stageii.npz
Output file: ../robot/ik_based/pkl/008616.pkl
Robot type: unitree_g1
Processing time: 242.96 seconds

STEP-BY-STEP TIMING:
  Step 1 - Load SMPLX:        14.48s
  Step 2 - Align FPS:         16.55s
  Step 3 - Init Retarget:     0.36s
  Step 4 - Init Visualization: 0.00s
  Step 5 - Process Frames:    209.91s (avg: 0.233s/frame)
  Step 6 - Convert Arrays:    0.00s
  Step 7 - Forward Kinematics: 0.80s
  Step 8 - Save Data:         0.03s
Status: SUCCESS
==================================================

=== SUCCESS LOG - 2025-10-14 20:37:17 ===
Input file: /data/retarget/locomotion/raw/AMASS_SMPLXG/Eyes_Japan_Dataset/kaiwa/throw_toss-17-pass_to_back_light-kaiwa_stageii.npz
Output file: ../robot/ik_based/pkl/008614.pkl
Robot type: unitree_g1
Processing time: 277.58 seconds

STEP-BY-STEP TIMING:
  Step 1 - Load SMPLX:        8.73s
  Step 2 - Align FPS:         19.52s
  Step 3 - Init Retarget:     0.33s
  Step 4 - Init Visualization: 0.00s
  Step 5 - Process Frames:    245.74s (avg: 0.273s/frame)
  Step 6 - Convert Arrays:    0.01s
  Step 7 - Forward Kinematics: 1.61s
  Step 8 - Save Data:         0.09s
Status: SUCCESS
==================================================

=== SUCCESS LOG - 2025-10-14 20:37:51 ===
Input file: /data/retarget/locomotion/raw/AMASS_SMPLXG/Eyes_Japan_Dataset/kaiwa/throw_toss-18-pass_to_back_heavy-kaiwa_stageii.npz
Output file: ../robot/ik_based/pkl/008615.pkl
Robot type: unitree_g1
Processing time: 297.54 seconds

STEP-BY-STEP TIMING:
  Step 1 - Load SMPLX:        14.98s
  Step 2 - Align FPS:         20.55s
  Step 3 - Init Retarget:     0.34s
  Step 4 - Init Visualization: 0.00s
  Step 5 - Process Frames:    259.05s (avg: 0.288s/frame)
  Step 6 - Convert Arrays:    0.00s
  Step 7 - Forward Kinematics: 1.59s
  Step 8 - Save Data:         0.02s
Status: SUCCESS
==================================================

=== SUCCESS LOG - 2025-10-14 20:39:26 ===
Input file: /data/retarget/locomotion/raw/AMASS_SMPLXG/Eyes_Japan_Dataset/kaiwa/throw_toss-20-pass_to_front_heavy-kaiwa_stageii.npz
Output file: ../robot/ik_based/pkl/008617.pkl
Robot type: unitree_g1
Processing time: 265.43 seconds

STEP-BY-STEP TIMING:
  Step 1 - Load SMPLX:        9.75s
  Step 2 - Align FPS:         19.09s
  Step 3 - Init Retarget:     0.49s
  Step 4 - Init Visualization: 0.00s
  Step 5 - Process Frames:    234.37s (avg: 0.260s/frame)
  Step 6 - Convert Arrays:    0.00s
  Step 7 - Forward Kinematics: 0.65s
  Step 8 - Save Data:         0.03s
Status: SUCCESS
==================================================

=== SUCCESS LOG - 2025-10-14 20:40:46 ===
Input file: /data/retarget/locomotion/raw/AMASS_SMPLXG/Eyes_Japan_Dataset/kaiwa/walk-24-listless-kaiwa_stageii.npz
Output file: ../robot/ik_based/pkl/008623.pkl
Robot type: unitree_g1
Processing time: 208.16 seconds

STEP-BY-STEP TIMING:
  Step 1 - Load SMPLX:        13.29s
  Step 2 - Align FPS:         18.21s
  Step 3 - Init Retarget:     0.43s
  Step 4 - Init Visualization: 0.00s
  Step 5 - Process Frames:    173.75s (avg: 0.196s/frame)
  Step 6 - Convert Arrays:    0.01s
  Step 7 - Forward Kinematics: 1.39s
  Step 8 - Save Data:         0.02s
Status: SUCCESS
==================================================

=== SUCCESS LOG - 2025-10-14 20:40:47 ===
Input file: /data/retarget/locomotion/raw/AMASS_SMPLXG/Eyes_Japan_Dataset/kaiwa/turn-05-turn-kaiwa_stageii.npz
Output file: ../robot/ik_based/pkl/008621.pkl
Robot type: unitree_g1
Processing time: 227.94 seconds

STEP-BY-STEP TIMING:
  Step 1 - Load SMPLX:        9.29s
  Step 2 - Align FPS:         17.11s
  Step 3 - Init Retarget:     0.45s
  Step 4 - Init Visualization: 0.00s
  Step 5 - Process Frames:    199.28s (avg: 0.221s/frame)
  Step 6 - Convert Arrays:    0.00s
  Step 7 - Forward Kinematics: 1.17s
  Step 8 - Save Data:         0.03s
Status: SUCCESS
==================================================

=== SUCCESS LOG - 2025-10-14 20:40:53 ===
Input file: /data/retarget/locomotion/raw/AMASS_SMPLXG/Eyes_Japan_Dataset/kaiwa/walk-26-exhausted-kaiwa_stageii.npz
Output file: ../robot/ik_based/pkl/008624.pkl
Robot type: unitree_g1
Processing time: 180.86 seconds

STEP-BY-STEP TIMING:
  Step 1 - Load SMPLX:        9.68s
  Step 2 - Align FPS:         12.22s
  Step 3 - Init Retarget:     0.42s
  Step 4 - Init Visualization: 0.00s
  Step 5 - Process Frames:    157.36s (avg: 0.177s/frame)
  Step 6 - Convert Arrays:    0.00s
  Step 7 - Forward Kinematics: 0.65s
  Step 8 - Save Data:         0.01s
Status: SUCCESS
==================================================

=== SUCCESS LOG - 2025-10-14 20:42:36 ===
Input file: /data/retarget/locomotion/raw/AMASS_SMPLXG/Eyes_Japan_Dataset/kaiwa/walk-16-push_by_hand-kaiwa_stageii.npz
Output file: ../robot/ik_based/pkl/008622.pkl
Robot type: unitree_g1
Processing time: 329.43 seconds

STEP-BY-STEP TIMING:
  Step 1 - Load SMPLX:        13.10s
  Step 2 - Align FPS:         22.35s
  Step 3 - Init Retarget:     0.59s
  Step 4 - Init Visualization: 0.01s
  Step 5 - Process Frames:    291.08s (avg: 0.325s/frame)
  Step 6 - Convert Arrays:    0.00s
  Step 7 - Forward Kinematics: 1.16s
  Step 8 - Save Data:         0.03s
Status: SUCCESS
==================================================

=== SUCCESS LOG - 2025-10-14 20:42:57 ===
Input file: /data/retarget/locomotion/raw/AMASS_SMPLXG/Eyes_Japan_Dataset/kaiwa/walk-29-look_down-kaiwa_stageii.npz
Output file: ../robot/ik_based/pkl/008626.pkl
Robot type: unitree_g1
Processing time: 210.19 seconds

STEP-BY-STEP TIMING:
  Step 1 - Load SMPLX:        9.73s
  Step 2 - Align FPS:         18.11s
  Step 3 - Init Retarget:     0.56s
  Step 4 - Init Visualization: 0.00s
  Step 5 - Process Frames:    178.70s (avg: 0.201s/frame)
  Step 6 - Convert Arrays:    0.01s
  Step 7 - Forward Kinematics: 2.30s
  Step 8 - Save Data:         0.02s
Status: SUCCESS
==================================================

=== SUCCESS LOG - 2025-10-14 20:44:12 ===
Input file: /data/retarget/locomotion/raw/AMASS_SMPLXG/Eyes_Japan_Dataset/kanno/accident-03-damage_head-kanno_stageii.npz
Output file: ../robot/ik_based/pkl/008629.pkl
Robot type: unitree_g1
Processing time: 204.65 seconds

STEP-BY-STEP TIMING:
  Step 1 - Load SMPLX:        7.91s
  Step 2 - Align FPS:         20.08s
  Step 3 - Init Retarget:     0.40s
  Step 4 - Init Visualization: 0.00s
  Step 5 - Process Frames:    174.40s (avg: 0.196s/frame)
  Step 6 - Convert Arrays:    0.01s
  Step 7 - Forward Kinematics: 0.89s
  Step 8 - Save Data:         0.03s
Status: SUCCESS
==================================================

=== SUCCESS LOG - 2025-10-14 20:44:17 ===
Input file: /data/retarget/locomotion/raw/AMASS_SMPLXG/Eyes_Japan_Dataset/kanno/accident-04-damage_right_leg-kanno_stageii.npz
Output file: ../robot/ik_based/pkl/008630.pkl
Robot type: unitree_g1
Processing time: 208.36 seconds

STEP-BY-STEP TIMING:
  Step 1 - Load SMPLX:        8.19s
  Step 2 - Align FPS:         23.47s
  Step 3 - Init Retarget:     0.34s
  Step 4 - Init Visualization: 0.00s
  Step 5 - Process Frames:    174.76s (avg: 0.196s/frame)
  Step 6 - Convert Arrays:    0.00s
  Step 7 - Forward Kinematics: 0.83s
  Step 8 - Save Data:         0.02s
Status: SUCCESS
==================================================

=== SUCCESS LOG - 2025-10-14 20:44:40 ===
Input file: /data/retarget/locomotion/raw/AMASS_SMPLXG/Eyes_Japan_Dataset/kanno/accident-05-damage_right_arm-kanno_stageii.npz
Output file: ../robot/ik_based/pkl/008631.pkl
Robot type: unitree_g1
Processing time: 227.03 seconds

STEP-BY-STEP TIMING:
  Step 1 - Load SMPLX:        15.83s
  Step 2 - Align FPS:         19.51s
  Step 3 - Init Retarget:     0.36s
  Step 4 - Init Visualization: 0.00s
  Step 5 - Process Frames:    190.47s (avg: 0.212s/frame)
  Step 6 - Convert Arrays:    0.00s
  Step 7 - Forward Kinematics: 0.40s
  Step 8 - Save Data:         0.04s
Status: SUCCESS
==================================================

=== SUCCESS LOG - 2025-10-14 20:46:15 ===
Input file: /data/retarget/locomotion/raw/AMASS_SMPLXG/Eyes_Japan_Dataset/kanno/accident-07-damage_left_arm-kanno_stageii.npz
Output file: ../robot/ik_based/pkl/008633.pkl
Robot type: unitree_g1
Processing time: 218.33 seconds

STEP-BY-STEP TIMING:
  Step 1 - Load SMPLX:        9.63s
  Step 2 - Align FPS:         16.62s
  Step 3 - Init Retarget:     0.39s
  Step 4 - Init Visualization: 0.00s
  Step 5 - Process Frames:    189.53s (avg: 0.211s/frame)
  Step 6 - Convert Arrays:    0.00s
  Step 7 - Forward Kinematics: 1.23s
  Step 8 - Save Data:         0.04s
Status: SUCCESS
==================================================

=== SUCCESS LOG - 2025-10-14 20:46:38 ===
Input file: /data/retarget/locomotion/raw/AMASS_SMPLXG/Eyes_Japan_Dataset/kanno/accident-08-damage_rightfoot-kanno_stageii.npz
Output file: ../robot/ik_based/pkl/008634.pkl
Robot type: unitree_g1
Processing time: 220.88 seconds

STEP-BY-STEP TIMING:
  Step 1 - Load SMPLX:        10.37s
  Step 2 - Align FPS:         21.98s
  Step 3 - Init Retarget:     0.34s
  Step 4 - Init Visualization: 0.00s
  Step 5 - Process Frames:    186.36s (avg: 0.209s/frame)
  Step 6 - Convert Arrays:    0.00s
  Step 7 - Forward Kinematics: 0.98s
  Step 8 - Save Data:         0.02s
Status: SUCCESS
==================================================

=== SUCCESS LOG - 2025-10-14 20:47:52 ===
Input file: /data/retarget/locomotion/raw/AMASS_SMPLXG/Eyes_Japan_Dataset/kanno/accident-13-damage_back-kanno_stageii.npz
Output file: ../robot/ik_based/pkl/008638.pkl
Robot type: unitree_g1
Processing time: 190.22 seconds

STEP-BY-STEP TIMING:
  Step 1 - Load SMPLX:        10.10s
  Step 2 - Align FPS:         17.89s
  Step 3 - Init Retarget:     0.43s
  Step 4 - Init Visualization: 0.00s
  Step 5 - Process Frames:    159.59s (avg: 0.179s/frame)
  Step 6 - Convert Arrays:    0.00s
  Step 7 - Forward Kinematics: 1.12s
  Step 8 - Save Data:         0.02s
Status: SUCCESS
==================================================

=== SUCCESS LOG - 2025-10-14 20:47:56 ===
Input file: /data/retarget/locomotion/raw/AMASS_SMPLXG/Eyes_Japan_Dataset/kanno/accident-12-twist_foot-kanno_stageii.npz
Output file: ../robot/ik_based/pkl/008637.pkl
Robot type: unitree_g1
Processing time: 218.35 seconds

STEP-BY-STEP TIMING:
  Step 1 - Load SMPLX:        12.28s
  Step 2 - Align FPS:         20.80s
  Step 3 - Init Retarget:     0.41s
  Step 4 - Init Visualization: 0.00s
  Step 5 - Process Frames:    183.47s (avg: 0.204s/frame)
  Step 6 - Convert Arrays:    0.00s
  Step 7 - Forward Kinematics: 0.68s
  Step 8 - Save Data:         0.03s
Status: SUCCESS
==================================================

=== SUCCESS LOG - 2025-10-14 20:48:03 ===
Input file: /data/retarget/locomotion/raw/AMASS_SMPLXG/Eyes_Japan_Dataset/kanno/accident-11-fall_down-kanno_stageii.npz
Output file: ../robot/ik_based/pkl/008636.pkl
Robot type: unitree_g1
Processing time: 230.81 seconds

STEP-BY-STEP TIMING:
  Step 1 - Load SMPLX:        8.80s
  Step 2 - Align FPS:         22.76s
  Step 3 - Init Retarget:     0.51s
  Step 4 - Init Visualization: 0.00s
  Step 5 - Process Frames:    196.21s (avg: 0.220s/frame)
  Step 6 - Convert Arrays:    0.00s
  Step 7 - Forward Kinematics: 0.99s
  Step 8 - Save Data:         0.05s
Status: SUCCESS
==================================================

=== SUCCESS LOG - 2025-10-14 20:50:08 ===
Input file: /data/retarget/locomotion/raw/AMASS_SMPLXG/Eyes_Japan_Dataset/kanno/accident-15-knock_head_2-kanno_stageii.npz
Output file: ../robot/ik_based/pkl/008640.pkl
Robot type: unitree_g1
Processing time: 231.67 seconds

STEP-BY-STEP TIMING:
  Step 1 - Load SMPLX:        9.05s
  Step 2 - Align FPS:         16.44s
  Step 3 - Init Retarget:     0.33s
  Step 4 - Init Visualization: 0.00s
  Step 5 - Process Frames:    203.67s (avg: 0.228s/frame)
  Step 6 - Convert Arrays:    0.01s
  Step 7 - Forward Kinematics: 1.10s
  Step 8 - Save Data:         0.03s
Status: SUCCESS
==================================================

=== SUCCESS LOG - 2025-10-14 20:50:10 ===
Input file: /data/retarget/locomotion/raw/AMASS_SMPLXG/Eyes_Japan_Dataset/kanno/gesture_etc-36-shame-kanno_stageii.npz
Output file: ../robot/ik_based/pkl/008641.pkl
Robot type: unitree_g1
Processing time: 210.71 seconds

STEP-BY-STEP TIMING:
  Step 1 - Load SMPLX:        11.28s
  Step 2 - Align FPS:         17.37s
  Step 3 - Init Retarget:     0.39s
  Step 4 - Init Visualization: 0.00s
  Step 5 - Process Frames:    179.80s (avg: 0.184s/frame)
  Step 6 - Convert Arrays:    0.01s
  Step 7 - Forward Kinematics: 1.06s
  Step 8 - Save Data:         0.02s
Status: SUCCESS
==================================================

=== SUCCESS LOG - 2025-10-14 20:52:04 ===
Input file: /data/retarget/locomotion/raw/AMASS_SMPLXG/Eyes_Japan_Dataset/kanno/gesture_etc-45-feel_dizzy_-kanno_stageii.npz
Output file: ../robot/ik_based/pkl/008645.pkl
Robot type: unitree_g1
Processing time: 240.31 seconds

STEP-BY-STEP TIMING:
  Step 1 - Load SMPLX:        15.69s
  Step 2 - Align FPS:         19.83s
  Step 3 - Init Retarget:     0.40s
  Step 4 - Init Visualization: 0.00s
  Step 5 - Process Frames:    202.51s (avg: 0.204s/frame)
  Step 6 - Convert Arrays:    0.01s
  Step 7 - Forward Kinematics: 1.05s
  Step 8 - Save Data:         0.02s
Status: SUCCESS
==================================================

=== SUCCESS LOG - 2025-10-14 20:52:05 ===
Input file: /data/retarget/locomotion/raw/AMASS_SMPLXG/Eyes_Japan_Dataset/kanno/gesture_etc-43-brush_teeth-kanno_stageii.npz
Output file: ../robot/ik_based/pkl/008644.pkl
Robot type: unitree_g1
Processing time: 247.81 seconds

STEP-BY-STEP TIMING:
  Step 1 - Load SMPLX:        10.59s
  Step 2 - Align FPS:         20.36s
  Step 3 - Init Retarget:     0.63s
  Step 4 - Init Visualization: 0.00s
  Step 5 - Process Frames:    214.10s (avg: 0.213s/frame)
  Step 6 - Convert Arrays:    0.01s
  Step 7 - Forward Kinematics: 1.03s
  Step 8 - Save Data:         0.03s
Status: SUCCESS
==================================================

=== SUCCESS LOG - 2025-10-14 20:52:08 ===
Input file: /data/retarget/locomotion/raw/AMASS_SMPLXG/Eyes_Japan_Dataset/kanno/gesture_etc-41-mosh-kanno_stageii.npz
Output file: ../robot/ik_based/pkl/008643.pkl
Robot type: unitree_g1
Processing time: 255.48 seconds

STEP-BY-STEP TIMING:
  Step 1 - Load SMPLX:        8.16s
  Step 2 - Align FPS:         23.32s
  Step 3 - Init Retarget:     0.93s
  Step 4 - Init Visualization: 0.00s
  Step 5 - Process Frames:    221.98s (avg: 0.220s/frame)
  Step 6 - Convert Arrays:    0.01s
  Step 7 - Forward Kinematics: 0.57s
  Step 8 - Save Data:         0.02s
Status: SUCCESS
==================================================

=== SUCCESS LOG - 2025-10-14 20:54:00 ===
Input file: /data/retarget/locomotion/raw/AMASS_SMPLXG/Eyes_Japan_Dataset/kanno/greeting-01-hello-kanno_stageii.npz
Output file: ../robot/ik_based/pkl/008648.pkl
Robot type: unitree_g1
Processing time: 229.76 seconds

STEP-BY-STEP TIMING:
  Step 1 - Load SMPLX:        8.48s
  Step 2 - Align FPS:         23.71s
  Step 3 - Init Retarget:     0.35s
  Step 4 - Init Visualization: 0.00s
  Step 5 - Process Frames:    195.64s (avg: 0.195s/frame)
  Step 6 - Convert Arrays:    0.01s
  Step 7 - Forward Kinematics: 0.90s
  Step 8 - Save Data:         0.02s
Status: SUCCESS
==================================================

=== SUCCESS LOG - 2025-10-14 20:54:01 ===
Input file: /data/retarget/locomotion/raw/AMASS_SMPLXG/Eyes_Japan_Dataset/kanno/gesture_etc-50-syuriken-kanno_stageii.npz
Output file: ../robot/ik_based/pkl/008647.pkl
Robot type: unitree_g1
Processing time: 231.85 seconds

STEP-BY-STEP TIMING:
  Step 1 - Load SMPLX:        7.93s
  Step 2 - Align FPS:         23.03s
  Step 3 - Init Retarget:     0.49s
  Step 4 - Init Visualization: 0.00s
  Step 5 - Process Frames:    198.79s (avg: 0.202s/frame)
  Step 6 - Convert Arrays:    0.00s
  Step 7 - Forward Kinematics: 0.71s
  Step 8 - Save Data:         0.03s
Status: SUCCESS
==================================================

=== SUCCESS LOG - 2025-10-14 20:55:52 ===
Input file: /data/retarget/locomotion/raw/AMASS_SMPLXG/Eyes_Japan_Dataset/kanno/greeting-05-salute_(chest)-kanno_stageii.npz
Output file: ../robot/ik_based/pkl/008651.pkl
Robot type: unitree_g1
Processing time: 226.26 seconds

STEP-BY-STEP TIMING:
  Step 1 - Load SMPLX:        7.56s
  Step 2 - Align FPS:         30.40s
  Step 3 - Init Retarget:     0.37s
  Step 4 - Init Visualization: 0.00s
  Step 5 - Process Frames:    185.66s (avg: 0.183s/frame)
  Step 6 - Convert Arrays:    0.01s
  Step 7 - Forward Kinematics: 1.19s
  Step 8 - Save Data:         0.01s
Status: SUCCESS
==================================================

=== SUCCESS LOG - 2025-10-14 20:55:55 ===
Input file: /data/retarget/locomotion/raw/AMASS_SMPLXG/Eyes_Japan_Dataset/kanno/greeting-08-shakehands-kanno_stageii.npz
Output file: ../robot/ik_based/pkl/008653.pkl
Robot type: unitree_g1
Processing time: 226.44 seconds

STEP-BY-STEP TIMING:
  Step 1 - Load SMPLX:        10.37s
  Step 2 - Align FPS:         28.04s
  Step 3 - Init Retarget:     0.50s
  Step 4 - Init Visualization: 0.00s
  Step 5 - Process Frames:    186.38s (avg: 0.182s/frame)
  Step 6 - Convert Arrays:    0.00s
  Step 7 - Forward Kinematics: 0.50s
  Step 8 - Save Data:         0.01s
Status: SUCCESS
==================================================

=== SUCCESS LOG - 2025-10-14 20:55:56 ===
Input file: /data/retarget/locomotion/raw/AMASS_SMPLXG/Eyes_Japan_Dataset/kanno/greeting-07-bow-kanno_stageii.npz
Output file: ../robot/ik_based/pkl/008652.pkl
Robot type: unitree_g1
Processing time: 229.57 seconds

STEP-BY-STEP TIMING:
  Step 1 - Load SMPLX:        7.58s
  Step 2 - Align FPS:         29.18s
  Step 3 - Init Retarget:     0.48s
  Step 4 - Init Visualization: 0.00s
  Step 5 - Process Frames:    191.12s (avg: 0.190s/frame)
  Step 6 - Convert Arrays:    0.01s
  Step 7 - Forward Kinematics: 0.55s
  Step 8 - Save Data:         0.02s
Status: SUCCESS
==================================================

=== SUCCESS LOG - 2025-10-14 20:57:48 ===
Input file: /data/retarget/locomotion/raw/AMASS_SMPLXG/Eyes_Japan_Dataset/kanno/greeting-09-certificate-kanno_stageii.npz
Output file: ../robot/ik_based/pkl/008654.pkl
Robot type: unitree_g1
Processing time: 226.59 seconds

STEP-BY-STEP TIMING:
  Step 1 - Load SMPLX:        8.41s
  Step 2 - Align FPS:         26.59s
  Step 3 - Init Retarget:     0.41s
  Step 4 - Init Visualization: 0.00s
  Step 5 - Process Frames:    188.77s (avg: 0.187s/frame)
  Step 6 - Convert Arrays:    0.01s
  Step 7 - Forward Kinematics: 1.21s
  Step 8 - Save Data:         0.04s
Status: SUCCESS
==================================================

=== SUCCESS LOG - 2025-10-14 20:59:50 ===
Input file: /data/retarget/locomotion/raw/AMASS_SMPLXG/Eyes_Japan_Dataset/kanno/jump-10-rope_long-kanno_stageii.npz
Output file: ../robot/ik_based/pkl/008658.pkl
Robot type: unitree_g1
Processing time: 233.04 seconds

STEP-BY-STEP TIMING:
  Step 1 - Load SMPLX:        9.49s
  Step 2 - Align FPS:         26.29s
  Step 3 - Init Retarget:     0.60s
  Step 4 - Init Visualization: 0.00s
  Step 5 - Process Frames:    194.37s (avg: 0.189s/frame)
  Step 6 - Convert Arrays:    0.01s
  Step 7 - Forward Kinematics: 1.16s
  Step 8 - Save Data:         0.03s
Status: SUCCESS
==================================================

=== ERROR LOG - 2025-10-14 20:59:59 ===
Input file: /data/retarget/locomotion/raw/AMASS_SMPLXG/Eyes_Japan_Dataset/kanno/male_stagei.npz
Output file: ../robot/ik_based/pkl/008661.pkl
Robot type: unitree_g1
Processing time: 7.89 seconds
Error message: 'pose_body is not a file in the archive'
Error type: KeyError
==================================================

=== SUCCESS LOG - 2025-10-14 21:00:54 ===
Input file: /data/retarget/locomotion/raw/AMASS_SMPLXG/Eyes_Japan_Dataset/kanno/jump-07-rope_double-kanno_stageii.npz
Output file: ../robot/ik_based/pkl/008655.pkl
Robot type: unitree_g1
Processing time: 412.07 seconds

STEP-BY-STEP TIMING:
  Step 1 - Load SMPLX:        8.57s
  Step 2 - Align FPS:         25.49s
  Step 3 - Init Retarget:     0.42s
  Step 4 - Init Visualization: 0.00s
  Step 5 - Process Frames:    375.72s (avg: 0.383s/frame)
  Step 6 - Convert Arrays:    0.01s
  Step 7 - Forward Kinematics: 1.04s
  Step 8 - Save Data:         0.05s
Status: SUCCESS
==================================================

=== SUCCESS LOG - 2025-10-14 21:01:38 ===
Input file: /data/retarget/locomotion/raw/AMASS_SMPLXG/Eyes_Japan_Dataset/kanno/jump-12-boxer_step-kanno_stageii.npz
Output file: ../robot/ik_based/pkl/008659.pkl
Robot type: unitree_g1
Processing time: 340.55 seconds

STEP-BY-STEP TIMING:
  Step 1 - Load SMPLX:        9.82s
  Step 2 - Align FPS:         30.81s
  Step 3 - Init Retarget:     0.48s
  Step 4 - Init Visualization: 0.00s
  Step 5 - Process Frames:    296.87s (avg: 0.298s/frame)
  Step 6 - Convert Arrays:    0.00s
  Step 7 - Forward Kinematics: 1.37s
  Step 8 - Save Data:         0.04s
Status: SUCCESS
==================================================

=== SUCCESS LOG - 2025-10-14 21:03:02 ===
Input file: /data/retarget/locomotion/raw/AMASS_SMPLXG/Eyes_Japan_Dataset/kanno/pose-09-pray_buddhism-kanno_stageii.npz
Output file: ../robot/ik_based/pkl/008665.pkl
Robot type: unitree_g1
Processing time: 182.26 seconds

STEP-BY-STEP TIMING:
  Step 1 - Load SMPLX:        10.32s
  Step 2 - Align FPS:         16.24s
  Step 3 - Init Retarget:     0.38s
  Step 4 - Init Visualization: 0.00s
  Step 5 - Process Frames:    153.17s (avg: 0.172s/frame)
  Step 6 - Convert Arrays:    0.01s
  Step 7 - Forward Kinematics: 1.06s
  Step 8 - Save Data:         0.01s
Status: SUCCESS
==================================================

=== SUCCESS LOG - 2025-10-14 21:03:16 ===
Input file: /data/retarget/locomotion/raw/AMASS_SMPLXG/Eyes_Japan_Dataset/kanno/jump-09-rope_cross-kanno_stageii.npz
Output file: ../robot/ik_based/pkl/008657.pkl
Robot type: unitree_g1
Processing time: 442.97 seconds

STEP-BY-STEP TIMING:
  Step 1 - Load SMPLX:        8.77s
  Step 2 - Align FPS:         28.54s
  Step 3 - Init Retarget:     0.40s
  Step 4 - Init Visualization: 0.00s
  Step 5 - Process Frames:    404.27s (avg: 0.402s/frame)
  Step 6 - Convert Arrays:    0.01s
  Step 7 - Forward Kinematics: 0.77s
  Step 8 - Save Data:         0.04s
Status: SUCCESS
==================================================

=== SUCCESS LOG - 2025-10-14 21:03:26 ===
Input file: /data/retarget/locomotion/raw/AMASS_SMPLXG/Eyes_Japan_Dataset/kanno/jump-13-matrix-kanno_stageii.npz
Output file: ../robot/ik_based/pkl/008660.pkl
Robot type: unitree_g1
Processing time: 336.94 seconds

STEP-BY-STEP TIMING:
  Step 1 - Load SMPLX:        8.48s
  Step 2 - Align FPS:         18.17s
  Step 3 - Init Retarget:     0.40s
  Step 4 - Init Visualization: 0.00s
  Step 5 - Process Frames:    308.25s (avg: 0.306s/frame)
  Step 6 - Convert Arrays:    0.00s
  Step 7 - Forward Kinematics: 1.13s
  Step 8 - Save Data:         0.03s
Status: SUCCESS
==================================================

=== SUCCESS LOG - 2025-10-14 21:04:06 ===
Input file: /data/retarget/locomotion/raw/AMASS_SMPLXG/Eyes_Japan_Dataset/kanno/pose-12-body_building-kanno_stageii.npz
Output file: ../robot/ik_based/pkl/008667.pkl
Robot type: unitree_g1
Processing time: 191.48 seconds

STEP-BY-STEP TIMING:
  Step 1 - Load SMPLX:        9.26s
  Step 2 - Align FPS:         16.15s
  Step 3 - Init Retarget:     0.33s
  Step 4 - Init Visualization: 0.00s
  Step 5 - Process Frames:    163.65s (avg: 0.183s/frame)
  Step 6 - Convert Arrays:    0.00s
  Step 7 - Forward Kinematics: 1.09s
  Step 8 - Save Data:         0.04s
Status: SUCCESS
==================================================

=== SUCCESS LOG - 2025-10-14 21:04:58 ===
Input file: /data/retarget/locomotion/raw/AMASS_SMPLXG/Eyes_Japan_Dataset/kanno/pose-14-look_up-kanno_stageii.npz
Output file: ../robot/ik_based/pkl/008669.pkl
Robot type: unitree_g1
Processing time: 198.80 seconds

STEP-BY-STEP TIMING:
  Step 1 - Load SMPLX:        10.52s
  Step 2 - Align FPS:         17.47s
  Step 3 - Init Retarget:     0.33s
  Step 4 - Init Visualization: 0.00s
  Step 5 - Process Frames:    168.23s (avg: 0.189s/frame)
  Step 6 - Convert Arrays:    0.01s
  Step 7 - Forward Kinematics: 1.12s
  Step 8 - Save Data:         0.03s
Status: SUCCESS
==================================================

=== SUCCESS LOG - 2025-10-14 21:06:37 ===
Input file: /data/retarget/locomotion/raw/AMASS_SMPLXG/Eyes_Japan_Dataset/kanno/pose-19-funny-kanno_stageii.npz
Output file: ../robot/ik_based/pkl/008673.pkl
Robot type: unitree_g1
Processing time: 199.62 seconds

STEP-BY-STEP TIMING:
  Step 1 - Load SMPLX:        12.38s
  Step 2 - Align FPS:         15.51s
  Step 3 - Init Retarget:     0.76s
  Step 4 - Init Visualization: 0.00s
  Step 5 - Process Frames:    169.36s (avg: 0.190s/frame)
  Step 6 - Convert Arrays:    0.00s
  Step 7 - Forward Kinematics: 0.81s
  Step 8 - Save Data:         0.02s
Status: SUCCESS
==================================================

=== SUCCESS LOG - 2025-10-14 21:06:37 ===
Input file: /data/retarget/locomotion/raw/AMASS_SMPLXG/Eyes_Japan_Dataset/kanno/pose-17-one_leg-kanno_stageii.npz
Output file: ../robot/ik_based/pkl/008672.pkl
Robot type: unitree_g1
Processing time: 214.60 seconds

STEP-BY-STEP TIMING:
  Step 1 - Load SMPLX:        10.44s
  Step 2 - Align FPS:         15.87s
  Step 3 - Init Retarget:     0.48s
  Step 4 - Init Visualization: 0.00s
  Step 5 - Process Frames:    185.89s (avg: 0.208s/frame)
  Step 6 - Convert Arrays:    0.00s
  Step 7 - Forward Kinematics: 0.98s
  Step 8 - Save Data:         0.02s
Status: SUCCESS
==================================================

=== SUCCESS LOG - 2025-10-14 21:07:16 ===
Input file: /data/retarget/locomotion/raw/AMASS_SMPLXG/Eyes_Japan_Dataset/kanno/pose-20-zombee-kanno_stageii.npz
Output file: ../robot/ik_based/pkl/008674.pkl
Robot type: unitree_g1
Processing time: 229.54 seconds

STEP-BY-STEP TIMING:
  Step 1 - Load SMPLX:        13.98s
  Step 2 - Align FPS:         19.66s
  Step 3 - Init Retarget:     0.34s
  Step 4 - Init Visualization: 0.00s
  Step 5 - Process Frames:    193.47s (avg: 0.217s/frame)
  Step 6 - Convert Arrays:    0.00s
  Step 7 - Forward Kinematics: 1.09s
  Step 8 - Save Data:         0.02s
Status: SUCCESS
==================================================

=== SUCCESS LOG - 2025-10-14 21:08:26 ===
Input file: /data/retarget/locomotion/raw/AMASS_SMPLXG/Eyes_Japan_Dataset/kanno/sitdown_standup-01-impolite-kanno_stageii.npz
Output file: ../robot/ik_based/pkl/008675.pkl
Robot type: unitree_g1
Processing time: 258.71 seconds

STEP-BY-STEP TIMING:
  Step 1 - Load SMPLX:        10.83s
  Step 2 - Align FPS:         23.97s
  Step 3 - Init Retarget:     0.46s
  Step 4 - Init Visualization: 0.00s
  Step 5 - Process Frames:    221.42s (avg: 0.225s/frame)
  Step 6 - Convert Arrays:    0.01s
  Step 7 - Forward Kinematics: 1.03s
  Step 8 - Save Data:         0.03s
Status: SUCCESS
==================================================

=== SUCCESS LOG - 2025-10-14 21:10:17 ===
Input file: /data/retarget/locomotion/raw/AMASS_SMPLXG/Eyes_Japan_Dataset/kanno/sitdown_standup-03-chair_back-kanno_stageii.npz
Output file: ../robot/ik_based/pkl/008676.pkl
Robot type: unitree_g1
Processing time: 317.86 seconds

STEP-BY-STEP TIMING:
  Step 1 - Load SMPLX:        10.53s
  Step 2 - Align FPS:         20.81s
  Step 3 - Init Retarget:     0.36s
  Step 4 - Init Visualization: 0.00s
  Step 5 - Process Frames:    283.76s (avg: 0.286s/frame)
  Step 6 - Convert Arrays:    0.00s
  Step 7 - Forward Kinematics: 1.22s
  Step 8 - Save Data:         0.04s
Status: SUCCESS
==================================================

=== SUCCESS LOG - 2025-10-14 21:11:25 ===
Input file: /data/retarget/locomotion/raw/AMASS_SMPLXG/Eyes_Japan_Dataset/kanno/sitdown_standup-13-applause-kanno_stageii.npz
Output file: ../robot/ik_based/pkl/008679.pkl
Robot type: unitree_g1
Processing time: 286.43 seconds

STEP-BY-STEP TIMING:
  Step 1 - Load SMPLX:        7.93s
  Step 2 - Align FPS:         26.05s
  Step 3 - Init Retarget:     0.32s
  Step 4 - Init Visualization: 0.00s
  Step 5 - Process Frames:    250.39s (avg: 0.252s/frame)
  Step 6 - Convert Arrays:    0.01s
  Step 7 - Forward Kinematics: 1.04s
  Step 8 - Save Data:         0.03s
Status: SUCCESS
==================================================

=== SUCCESS LOG - 2025-10-14 21:11:25 ===
Input file: /data/retarget/locomotion/raw/AMASS_SMPLXG/Eyes_Japan_Dataset/kanno/sitdown_standup-14-hold_chair-kanno_stageii.npz
Output file: ../robot/ik_based/pkl/008680.pkl
Robot type: unitree_g1
Processing time: 248.20 seconds

STEP-BY-STEP TIMING:
  Step 1 - Load SMPLX:        9.98s
  Step 2 - Align FPS:         18.77s
  Step 3 - Init Retarget:     0.38s
  Step 4 - Init Visualization: 0.00s
  Step 5 - Process Frames:    217.28s (avg: 0.217s/frame)
  Step 6 - Convert Arrays:    0.00s
  Step 7 - Forward Kinematics: 0.77s
  Step 8 - Save Data:         0.04s
Status: SUCCESS
==================================================

=== SUCCESS LOG - 2025-10-14 21:12:06 ===
Input file: /data/retarget/locomotion/raw/AMASS_SMPLXG/Eyes_Japan_Dataset/kanno/sitdown_standup-11-one_knee_drawn_up-kanno_stageii.npz
Output file: ../robot/ik_based/pkl/008678.pkl
Robot type: unitree_g1
Processing time: 328.53 seconds

STEP-BY-STEP TIMING:
  Step 1 - Load SMPLX:        8.68s
  Step 2 - Align FPS:         25.98s
  Step 3 - Init Retarget:     0.40s
  Step 4 - Init Visualization: 0.00s
  Step 5 - Process Frames:    291.45s (avg: 0.293s/frame)
  Step 6 - Convert Arrays:    0.01s
  Step 7 - Forward Kinematics: 1.10s
  Step 8 - Save Data:         0.02s
Status: SUCCESS
==================================================

=== SUCCESS LOG - 2025-10-14 21:12:09 ===
Input file: /data/retarget/locomotion/raw/AMASS_SMPLXG/Eyes_Japan_Dataset/kanno/throw_toss-04-both_hands_over_light-kanno_stageii.npz
Output file: ../robot/ik_based/pkl/008681.pkl
Robot type: unitree_g1
Processing time: 222.45 seconds

STEP-BY-STEP TIMING:
  Step 1 - Load SMPLX:        9.68s
  Step 2 - Align FPS:         17.70s
  Step 3 - Init Retarget:     0.34s
  Step 4 - Init Visualization: 0.00s
  Step 5 - Process Frames:    193.19s (avg: 0.215s/frame)
  Step 6 - Convert Arrays:    0.01s
  Step 7 - Forward Kinematics: 0.92s
  Step 8 - Save Data:         0.01s
Status: SUCCESS
==================================================

=== SUCCESS LOG - 2025-10-14 21:14:36 ===
Input file: /data/retarget/locomotion/raw/AMASS_SMPLXG/Eyes_Japan_Dataset/kanno/walk-02-drank-kanno_stageii.npz
Output file: ../robot/ik_based/pkl/008684.pkl
Robot type: unitree_g1
Processing time: 257.96 seconds

STEP-BY-STEP TIMING:
  Step 1 - Load SMPLX:        8.93s
  Step 2 - Align FPS:         15.76s
  Step 3 - Init Retarget:     0.34s
  Step 4 - Init Visualization: 0.00s
  Step 5 - Process Frames:    230.79s (avg: 0.251s/frame)
  Step 6 - Convert Arrays:    0.00s
  Step 7 - Forward Kinematics: 1.05s
  Step 8 - Save Data:         0.04s
Status: SUCCESS
==================================================

=== SUCCESS LOG - 2025-10-14 21:16:01 ===
Input file: /data/retarget/locomotion/raw/AMASS_SMPLXG/Eyes_Japan_Dataset/kanno/walk-05-backward-kanno_stageii.npz
Output file: ../robot/ik_based/pkl/008687.pkl
Robot type: unitree_g1
Processing time: 274.58 seconds

STEP-BY-STEP TIMING:
  Step 1 - Load SMPLX:        8.53s
  Step 2 - Align FPS:         20.85s
  Step 3 - Init Retarget:     0.59s
  Step 4 - Init Visualization: 0.00s
  Step 5 - Process Frames:    242.50s (avg: 0.232s/frame)
  Step 6 - Convert Arrays:    0.01s
  Step 7 - Forward Kinematics: 1.06s
  Step 8 - Save Data:         0.02s
Status: SUCCESS
==================================================

=== SUCCESS LOG - 2025-10-14 21:16:24 ===
Input file: /data/retarget/locomotion/raw/AMASS_SMPLXG/Eyes_Japan_Dataset/kanno/walk-07-moonwalk-kanno_stageii.npz
Output file: ../robot/ik_based/pkl/008689.pkl
Robot type: unitree_g1
Processing time: 253.77 seconds

STEP-BY-STEP TIMING:
  Step 1 - Load SMPLX:        10.66s
  Step 2 - Align FPS:         22.11s
  Step 3 - Init Retarget:     0.40s
  Step 4 - Init Visualization: 0.00s
  Step 5 - Process Frames:    218.86s (avg: 0.216s/frame)
  Step 6 - Convert Arrays:    0.01s
  Step 7 - Forward Kinematics: 0.89s
  Step 8 - Save Data:         0.02s
Status: SUCCESS
==================================================

=== SUCCESS LOG - 2025-10-14 21:16:47 ===
Input file: /data/retarget/locomotion/raw/AMASS_SMPLXG/Eyes_Japan_Dataset/kanno/walk-06-catwalk-kanno_stageii.npz
Output file: ../robot/ik_based/pkl/008688.pkl
Robot type: unitree_g1
Processing time: 280.11 seconds

STEP-BY-STEP TIMING:
  Step 1 - Load SMPLX:        8.57s
  Step 2 - Align FPS:         21.24s
  Step 3 - Init Retarget:     0.82s
  Step 4 - Init Visualization: 0.00s
  Step 5 - Process Frames:    248.11s (avg: 0.249s/frame)
  Step 6 - Convert Arrays:    0.01s
  Step 7 - Forward Kinematics: 0.81s
  Step 8 - Save Data:         0.02s
Status: SUCCESS
==================================================

=== SUCCESS LOG - 2025-10-14 21:17:49 ===
Input file: /data/retarget/locomotion/raw/AMASS_SMPLXG/Eyes_Japan_Dataset/kanno/walk-04-fast-kanno_stageii.npz
Output file: ../robot/ik_based/pkl/008686.pkl
Robot type: unitree_g1
Processing time: 383.15 seconds

STEP-BY-STEP TIMING:
  Step 1 - Load SMPLX:        7.96s
  Step 2 - Align FPS:         22.83s
  Step 3 - Init Retarget:     0.40s
  Step 4 - Init Visualization: 0.00s
  Step 5 - Process Frames:    349.91s (avg: 0.347s/frame)
  Step 6 - Convert Arrays:    0.00s
  Step 7 - Forward Kinematics: 1.01s
  Step 8 - Save Data:         0.02s
Status: SUCCESS
==================================================

=== SUCCESS LOG - 2025-10-14 21:19:18 ===
Input file: /data/retarget/locomotion/raw/AMASS_SMPLXG/Eyes_Japan_Dataset/kanno/walk-10-shoulder_bag-kanno_stageii.npz
Output file: ../robot/ik_based/pkl/008691.pkl
Robot type: unitree_g1
Processing time: 281.65 seconds

STEP-BY-STEP TIMING:
  Step 1 - Load SMPLX:        9.84s
  Step 2 - Align FPS:         16.78s
  Step 3 - Init Retarget:     0.37s
  Step 4 - Init Visualization: 0.00s
  Step 5 - Process Frames:    252.63s (avg: 0.238s/frame)
  Step 6 - Convert Arrays:    0.00s
  Step 7 - Forward Kinematics: 0.96s
  Step 8 - Save Data:         0.03s
Status: SUCCESS
==================================================

=== SUCCESS LOG - 2025-10-14 21:20:41 ===
Input file: /data/retarget/locomotion/raw/AMASS_SMPLXG/Eyes_Japan_Dataset/kanno/walk-14-backpack-kanno_stageii.npz
Output file: ../robot/ik_based/pkl/008694.pkl
Robot type: unitree_g1
Processing time: 256.45 seconds

STEP-BY-STEP TIMING:
  Step 1 - Load SMPLX:        10.83s
  Step 2 - Align FPS:         15.97s
  Step 3 - Init Retarget:     0.35s
  Step 4 - Init Visualization: 0.00s
  Step 5 - Process Frames:    227.05s (avg: 0.226s/frame)
  Step 6 - Convert Arrays:    0.00s
  Step 7 - Forward Kinematics: 1.16s
  Step 8 - Save Data:         0.03s
Status: SUCCESS
==================================================

=== SUCCESS LOG - 2025-10-14 21:21:43 ===
Input file: /data/retarget/locomotion/raw/AMASS_SMPLXG/Eyes_Japan_Dataset/kanno/walk-13-baggage_on_the_shoulder-kanno_stageii.npz
Output file: ../robot/ik_based/pkl/008693.pkl
Robot type: unitree_g1
Processing time: 340.99 seconds

STEP-BY-STEP TIMING:
  Step 1 - Load SMPLX:        9.54s
  Step 2 - Align FPS:         17.16s
  Step 3 - Init Retarget:     0.29s
  Step 4 - Init Visualization: 0.00s
  Step 5 - Process Frames:    311.78s (avg: 0.312s/frame)
  Step 6 - Convert Arrays:    0.00s
  Step 7 - Forward Kinematics: 1.03s
  Step 8 - Save Data:         0.03s
Status: SUCCESS
==================================================

=== SUCCESS LOG - 2025-10-14 21:22:09 ===
Input file: /data/retarget/locomotion/raw/AMASS_SMPLXG/Eyes_Japan_Dataset/kanno/walk-16-push_by_hand-kanno_stageii.npz
Output file: ../robot/ik_based/pkl/008696.pkl
Robot type: unitree_g1
Processing time: 258.73 seconds

STEP-BY-STEP TIMING:
  Step 1 - Load SMPLX:        9.57s
  Step 2 - Align FPS:         19.75s
  Step 3 - Init Retarget:     0.39s
  Step 4 - Init Visualization: 0.00s
  Step 5 - Process Frames:    225.64s (avg: 0.225s/frame)
  Step 6 - Convert Arrays:    0.00s
  Step 7 - Forward Kinematics: 2.32s
  Step 8 - Save Data:         0.02s
Status: SUCCESS
==================================================

=== SUCCESS LOG - 2025-10-14 21:22:12 ===
Input file: /data/retarget/locomotion/raw/AMASS_SMPLXG/Eyes_Japan_Dataset/kanno/walk-15-pull-kanno_stageii.npz
Output file: ../robot/ik_based/pkl/008695.pkl
Robot type: unitree_g1
Processing time: 324.26 seconds

STEP-BY-STEP TIMING:
  Step 1 - Load SMPLX:        11.93s
  Step 2 - Align FPS:         15.92s
  Step 3 - Init Retarget:     0.47s
  Step 4 - Init Visualization: 0.00s
  Step 5 - Process Frames:    294.61s (avg: 0.323s/frame)
  Step 6 - Convert Arrays:    0.00s
  Step 7 - Forward Kinematics: 0.81s
  Step 8 - Save Data:         0.03s
Status: SUCCESS
==================================================

=== ERROR LOG - 2025-10-14 21:22:17 ===
Input file: /data/retarget/locomotion/raw/AMASS_SMPLXG/Eyes_Japan_Dataset/kawaguchi/female_stagei.npz
Output file: ../robot/ik_based/pkl/008704.pkl
Robot type: unitree_g1
Processing time: 7.04 seconds
Error message: 'pose_body is not a file in the archive'
Error type: KeyError
==================================================

=== SUCCESS LOG - 2025-10-14 21:23:30 ===
Input file: /data/retarget/locomotion/raw/AMASS_SMPLXG/Eyes_Japan_Dataset/kanno/walk-19-shuffle_backward-kanno_stageii.npz
Output file: ../robot/ik_based/pkl/008698.pkl
Robot type: unitree_g1
Processing time: 251.11 seconds

STEP-BY-STEP TIMING:
  Step 1 - Load SMPLX:        9.91s
  Step 2 - Align FPS:         19.20s
  Step 3 - Init Retarget:     0.36s
  Step 4 - Init Visualization: 0.00s
  Step 5 - Process Frames:    219.71s (avg: 0.214s/frame)
  Step 6 - Convert Arrays:    0.01s
  Step 7 - Forward Kinematics: 1.21s
  Step 8 - Save Data:         0.02s
Status: SUCCESS
==================================================

=== SUCCESS LOG - 2025-10-14 21:24:21 ===
Input file: /data/retarget/locomotion/raw/AMASS_SMPLXG/Eyes_Japan_Dataset/kawaguchi/gesture_etc-07-over_stretch-kawaguchi_stageii.npz
Output file: ../robot/ik_based/pkl/008706.pkl
Robot type: unitree_g1
Processing time: 123.83 seconds

STEP-BY-STEP TIMING:
  Step 1 - Load SMPLX:        9.68s
  Step 2 - Align FPS:         7.22s
  Step 3 - Init Retarget:     0.39s
  Step 4 - Init Visualization: 0.00s
  Step 5 - Process Frames:    104.62s (avg: 0.221s/frame)
  Step 6 - Convert Arrays:    0.00s
  Step 7 - Forward Kinematics: 1.03s
  Step 8 - Save Data:         0.02s
Status: SUCCESS
==================================================

=== SUCCESS LOG - 2025-10-14 21:24:27 ===
Input file: /data/retarget/locomotion/raw/AMASS_SMPLXG/Eyes_Japan_Dataset/kanno/walk-29-look_down-kanno_stageii.npz
Output file: ../robot/ik_based/pkl/008701.pkl
Robot type: unitree_g1
Processing time: 224.67 seconds

STEP-BY-STEP TIMING:
  Step 1 - Load SMPLX:        9.66s
  Step 2 - Align FPS:         18.23s
  Step 3 - Init Retarget:     0.36s
  Step 4 - Init Visualization: 0.00s
  Step 5 - Process Frames:    194.92s (avg: 0.200s/frame)
  Step 6 - Convert Arrays:    0.00s
  Step 7 - Forward Kinematics: 1.00s
  Step 8 - Save Data:         0.03s
Status: SUCCESS
==================================================

=== SUCCESS LOG - 2025-10-14 21:24:40 ===
Input file: /data/retarget/locomotion/raw/AMASS_SMPLXG/Eyes_Japan_Dataset/kawaguchi/accident-02-dodge_fast-kawaguchi_stageii.npz
Output file: ../robot/ik_based/pkl/008703.pkl
Robot type: unitree_g1
Processing time: 175.46 seconds

STEP-BY-STEP TIMING:
  Step 1 - Load SMPLX:        9.35s
  Step 2 - Align FPS:         13.44s
  Step 3 - Init Retarget:     0.37s
  Step 4 - Init Visualization: 0.00s
  Step 5 - Process Frames:    149.47s (avg: 0.194s/frame)
  Step 6 - Convert Arrays:    0.00s
  Step 7 - Forward Kinematics: 0.89s
  Step 8 - Save Data:         0.04s
Status: SUCCESS
==================================================

=== SUCCESS LOG - 2025-10-14 21:24:54 ===
Input file: /data/retarget/locomotion/raw/AMASS_SMPLXG/Eyes_Japan_Dataset/kawaguchi/gesture_etc-04-set_4-kawaguchi_stageii.npz
Output file: ../robot/ik_based/pkl/008705.pkl
Robot type: unitree_g1
Processing time: 161.31 seconds

STEP-BY-STEP TIMING:
  Step 1 - Load SMPLX:        7.50s
  Step 2 - Align FPS:         6.89s
  Step 3 - Init Retarget:     0.62s
  Step 4 - Init Visualization: 0.01s
  Step 5 - Process Frames:    143.40s (avg: 0.323s/frame)
  Step 6 - Convert Arrays:    0.00s
  Step 7 - Forward Kinematics: 1.09s
  Step 8 - Save Data:         0.04s
Status: SUCCESS
==================================================

=== SUCCESS LOG - 2025-10-14 21:25:06 ===
Input file: /data/retarget/locomotion/raw/AMASS_SMPLXG/Eyes_Japan_Dataset/kawaguchi/gesture_etc-31-ok-kawaguchi_stageii.npz
Output file: ../robot/ik_based/pkl/008710.pkl
Robot type: unitree_g1
Processing time: 94.37 seconds

STEP-BY-STEP TIMING:
  Step 1 - Load SMPLX:        9.34s
  Step 2 - Align FPS:         5.38s
  Step 3 - Init Retarget:     0.39s
  Step 4 - Init Visualization: 0.00s
  Step 5 - Process Frames:    77.46s (avg: 0.186s/frame)
  Step 6 - Convert Arrays:    0.00s
  Step 7 - Forward Kinematics: 0.93s
  Step 8 - Save Data:         0.02s
Status: SUCCESS
==================================================

=== SUCCESS LOG - 2025-10-14 21:26:54 ===
Input file: /data/retarget/locomotion/raw/AMASS_SMPLXG/Eyes_Japan_Dataset/kawaguchi/gesture_etc-42-hung_over-kawaguchi_stageii.npz
Output file: ../robot/ik_based/pkl/008715.pkl
Robot type: unitree_g1
Processing time: 132.31 seconds

STEP-BY-STEP TIMING:
  Step 1 - Load SMPLX:        10.71s
  Step 2 - Align FPS:         11.05s
  Step 3 - Init Retarget:     0.39s
  Step 4 - Init Visualization: 0.00s
  Step 5 - Process Frames:    108.00s (avg: 0.201s/frame)
  Step 6 - Convert Arrays:    0.00s
  Step 7 - Forward Kinematics: 1.05s
  Step 8 - Save Data:         0.02s
Status: SUCCESS
==================================================

=== SUCCESS LOG - 2025-10-14 21:27:26 ===
Input file: /data/retarget/locomotion/raw/AMASS_SMPLXG/Eyes_Japan_Dataset/kawaguchi/gesture_etc-39-giant_baba-kawaguchi_stageii.npz
Output file: ../robot/ik_based/pkl/008714.pkl
Robot type: unitree_g1
Processing time: 178.50 seconds

STEP-BY-STEP TIMING:
  Step 1 - Load SMPLX:        10.78s
  Step 2 - Align FPS:         11.75s
  Step 3 - Init Retarget:     0.35s
  Step 4 - Init Visualization: 0.00s
  Step 5 - Process Frames:    153.20s (avg: 0.241s/frame)
  Step 6 - Convert Arrays:    0.01s
  Step 7 - Forward Kinematics: 1.24s
  Step 8 - Save Data:         0.04s
Status: SUCCESS
==================================================

=== SUCCESS LOG - 2025-10-14 21:27:38 ===
Input file: /data/retarget/locomotion/raw/AMASS_SMPLXG/Eyes_Japan_Dataset/kawaguchi/gesture_etc-51-cramp-kawaguchi_stageii.npz
Output file: ../robot/ik_based/pkl/008717.pkl
Robot type: unitree_g1
Processing time: 152.04 seconds

STEP-BY-STEP TIMING:
  Step 1 - Load SMPLX:        12.50s
  Step 2 - Align FPS:         10.59s
  Step 3 - Init Retarget:     0.42s
  Step 4 - Init Visualization: 0.00s
  Step 5 - Process Frames:    127.83s (avg: 0.271s/frame)
  Step 6 - Convert Arrays:    0.00s
  Step 7 - Forward Kinematics: 0.21s
  Step 8 - Save Data:         0.02s
Status: SUCCESS
==================================================

=== SUCCESS LOG - 2025-10-14 21:28:26 ===
Input file: /data/retarget/locomotion/raw/AMASS_SMPLXG/Eyes_Japan_Dataset/kawaguchi/gesture_etc-35-west_side-kawaguchi_stageii.npz
Output file: ../robot/ik_based/pkl/008713.pkl
Robot type: unitree_g1
Processing time: 244.58 seconds

STEP-BY-STEP TIMING:
  Step 1 - Load SMPLX:        9.13s
  Step 2 - Align FPS:         9.89s
  Step 3 - Init Retarget:     1.09s
  Step 4 - Init Visualization: 0.04s
  Step 5 - Process Frames:    222.63s (avg: 0.369s/frame)
  Step 6 - Convert Arrays:    0.00s
  Step 7 - Forward Kinematics: 0.90s
  Step 8 - Save Data:         0.02s
Status: SUCCESS
==================================================

=== SUCCESS LOG - 2025-10-14 21:28:26 ===
Input file: /data/retarget/locomotion/raw/AMASS_SMPLXG/Eyes_Japan_Dataset/kawaguchi/gesture_etc-50-syuriken-kawaguchi_stageii.npz
Output file: ../robot/ik_based/pkl/008716.pkl
Robot type: unitree_g1
Processing time: 210.68 seconds

STEP-BY-STEP TIMING:
  Step 1 - Load SMPLX:        10.65s
  Step 2 - Align FPS:         17.81s
  Step 3 - Init Retarget:     0.32s
  Step 4 - Init Visualization: 0.00s
  Step 5 - Process Frames:    179.97s (avg: 0.218s/frame)
  Step 6 - Convert Arrays:    0.00s
  Step 7 - Forward Kinematics: 0.94s
  Step 8 - Save Data:         0.02s
Status: SUCCESS
==================================================

=== SUCCESS LOG - 2025-10-14 21:29:31 ===
Input file: /data/retarget/locomotion/raw/AMASS_SMPLXG/Eyes_Japan_Dataset/kawaguchi/greeting-03-election-kawaguchi_stageii.npz
Output file: ../robot/ik_based/pkl/008720.pkl
Robot type: unitree_g1
Processing time: 156.46 seconds

STEP-BY-STEP TIMING:
  Step 1 - Load SMPLX:        8.85s
  Step 2 - Align FPS:         8.24s
  Step 3 - Init Retarget:     0.39s
  Step 4 - Init Visualization: 0.00s
  Step 5 - Process Frames:    136.74s (avg: 0.217s/frame)
  Step 6 - Convert Arrays:    0.00s
  Step 7 - Forward Kinematics: 1.13s
  Step 8 - Save Data:         0.03s
Status: SUCCESS
==================================================

=== SUCCESS LOG - 2025-10-14 21:30:21 ===
Input file: /data/retarget/locomotion/raw/AMASS_SMPLXG/Eyes_Japan_Dataset/kawaguchi/greeting-08-shakehands-kawaguchi_stageii.npz
Output file: ../robot/ik_based/pkl/008722.pkl
Robot type: unitree_g1
Processing time: 161.81 seconds

STEP-BY-STEP TIMING:
  Step 1 - Load SMPLX:        10.78s
  Step 2 - Align FPS:         15.26s
  Step 3 - Init Retarget:     0.36s
  Step 4 - Init Visualization: 0.00s
  Step 5 - Process Frames:    133.02s (avg: 0.194s/frame)
  Step 6 - Convert Arrays:    0.00s
  Step 7 - Forward Kinematics: 1.27s
  Step 8 - Save Data:         0.03s
Status: SUCCESS
==================================================

=== SUCCESS LOG - 2025-10-14 21:31:42 ===
Input file: /data/retarget/locomotion/raw/AMASS_SMPLXG/Eyes_Japan_Dataset/kawaguchi/greeting-04-salute_(head)-kawaguchi_stageii.npz
Output file: ../robot/ik_based/pkl/008721.pkl
Robot type: unitree_g1
Processing time: 254.66 seconds

STEP-BY-STEP TIMING:
  Step 1 - Load SMPLX:        10.75s
  Step 2 - Align FPS:         17.68s
  Step 3 - Init Retarget:     0.41s
  Step 4 - Init Visualization: 0.00s
  Step 5 - Process Frames:    223.49s (avg: 0.318s/frame)
  Step 6 - Convert Arrays:    0.00s
  Step 7 - Forward Kinematics: 1.23s
[...]
Output file: ../robot/ik_based/pkl/008729.pkl
Robot type: unitree_g1
Processing time: 194.96 seconds

STEP-BY-STEP TIMING:
  Step 1 - Load SMPLX:        9.13s
  Step 2 - Align FPS:         16.04s
  Step 3 - Init Retarget:     0.39s
  Step 4 - Init Visualization: 0.00s
  Step 5 - Process Frames:    166.11s (avg: 0.213s/frame)
  Step 6 - Convert Arrays:    0.00s
  Step 7 - Forward Kinematics: 2.44s
  Step 8 - Save Data:         0.03s
Status: SUCCESS
==================================================

=== SUCCESS LOG - 2025-10-14 21:35:35 ===
Input file: /data/retarget/locomotion/raw/AMASS_SMPLXG/Eyes_Japan_Dataset/kawaguchi/pain-02-stomachache-kawaguchi_stageii.npz
Output file: ../robot/ik_based/pkl/008730.pkl
Robot type: unitree_g1
Processing time: 199.79 seconds

STEP-BY-STEP TIMING:
  Step 1 - Load SMPLX:        9.51s
  Step 2 - Align FPS:         14.59s
  Step 3 - Init Retarget:     0.30s
  Step 4 - Init Visualization: 0.00s
  Step 5 - Process Frames:    173.04s (avg: 0.198s/frame)
  Step 6 - Convert Arrays:    0.00s
  Step 7 - Forward Kinematics: 1.22s
  Step 8 - Save Data:         0.02s
Status: SUCCESS
==================================================

=== SUCCESS LOG - 2025-10-14 21:36:06 ===
Input file: /data/retarget/locomotion/raw/AMASS_SMPLXG/Eyes_Japan_Dataset/kawaguchi/jump-05-rope_normal_run-kawaguchi_stageii.npz
Output file: ../robot/ik_based/pkl/008726.pkl
Robot type: unitree_g1
Processing time: 394.55 seconds

STEP-BY-STEP TIMING:
  Step 1 - Load SMPLX:        9.44s
  Step 2 - Align FPS:         17.50s
  Step 3 - Init Retarget:     0.38s
  Step 4 - Init Visualization: 0.00s
  Step 5 - Process Frames:    365.05s (avg: 0.409s/frame)
  Step 6 - Convert Arrays:    0.00s
  Step 7 - Forward Kinematics: 1.18s
  Step 8 - Save Data:         0.03s
Status: SUCCESS
==================================================

=== SUCCESS LOG - 2025-10-14 21:37:07 ===
Input file: /data/retarget/locomotion/raw/AMASS_SMPLXG/Eyes_Japan_Dataset/kawaguchi/pose-17-one_leg-kawaguchi_stageii.npz
Output file: ../robot/ik_based/pkl/008738.pkl
Robot type: unitree_g1
Processing time: 146.17 seconds

STEP-BY-STEP TIMING:
  Step 1 - Load SMPLX:        10.03s
  Step 2 - Align FPS:         13.43s
  Step 3 - Init Retarget:     0.55s
  Step 4 - Init Visualization: 0.00s
  Step 5 - Process Frames:    120.16s (avg: 0.169s/frame)
  Step 6 - Convert Arrays:    0.01s
  Step 7 - Forward Kinematics: 1.06s
  Step 8 - Save Data:         0.02s
Status: SUCCESS
==================================================

=== SUCCESS LOG - 2025-10-14 21:37:24 ===
Input file: /data/retarget/locomotion/raw/AMASS_SMPLXG/Eyes_Japan_Dataset/kawaguchi/jump-08-rope_backward-kawaguchi_stageii.npz
Output file: ../robot/ik_based/pkl/008727.pkl
Robot type: unitree_g1
Processing time: 422.65 seconds

STEP-BY-STEP TIMING:
  Step 1 - Load SMPLX:        8.98s
  Step 2 - Align FPS:         16.93s
  Step 3 - Init Retarget:     0.42s
  Step 4 - Init Visualization: 0.00s
  Step 5 - Process Frames:    394.60s (avg: 0.442s/frame)
  Step 6 - Convert Arrays:    0.00s
  Step 7 - Forward Kinematics: 0.91s
  Step 8 - Save Data:         0.01s
Status: SUCCESS
==================================================

=== SUCCESS LOG - 2025-10-14 21:37:59 ===
Input file: /data/retarget/locomotion/raw/AMASS_SMPLXG/Eyes_Japan_Dataset/kawaguchi/sitdown_standup-01-impolite-kawaguchi_stageii.npz
Output file: ../robot/ik_based/pkl/008739.pkl
Robot type: unitree_g1
Processing time: 181.27 seconds

STEP-BY-STEP TIMING:
  Step 1 - Load SMPLX:        9.43s
  Step 2 - Align FPS:         12.55s
  Step 3 - Init Retarget:     0.43s
  Step 4 - Init Visualization: 0.00s
  Step 5 - Process Frames:    156.53s (avg: 0.236s/frame)
  Step 6 - Convert Arrays:    0.00s
  Step 7 - Forward Kinematics: 1.37s
  Step 8 - Save Data:         0.02s
Status: SUCCESS
==================================================

=== SUCCESS LOG - 2025-10-14 21:38:22 ===
Input file: /data/retarget/locomotion/raw/AMASS_SMPLXG/Eyes_Japan_Dataset/kawaguchi/throw_toss-04-both_hands_over_light-kawaguchi_stageii.npz
Output file: ../robot/ik_based/pkl/008742.pkl
Robot type: unitree_g1
Processing time: 135.18 seconds

STEP-BY-STEP TIMING:
  Step 1 - Load SMPLX:        8.92s
  Step 2 - Align FPS:         9.07s
  Step 3 - Init Retarget:     0.43s
  Step 4 - Init Visualization: 0.00s
  Step 5 - Process Frames:    114.50s (avg: 0.241s/frame)
  Step 6 - Convert Arrays:    0.00s
  Step 7 - Forward Kinematics: 0.82s
  Step 8 - Save Data:         0.03s
Status: SUCCESS
==================================================

=== SUCCESS LOG - 2025-10-14 21:38:29 ===
Input file: /data/retarget/locomotion/raw/AMASS_SMPLXG/Eyes_Japan_Dataset/kawaguchi/sitdown_standup-10-observe-kawaguchi_stageii.npz
Output file: ../robot/ik_based/pkl/008740.pkl
Robot type: unitree_g1
Processing time: 172.51 seconds

STEP-BY-STEP TIMING:
  Step 1 - Load SMPLX:        9.59s
  Step 2 - Align FPS:         13.16s
  Step 3 - Init Retarget:     0.37s
  Step 4 - Init Visualization: 0.00s
  Step 5 - Process Frames:    147.72s (avg: 0.209s/frame)
  Step 6 - Convert Arrays:    0.00s
  Step 7 - Forward Kinematics: 0.89s
  Step 8 - Save Data:         0.02s
Status: SUCCESS
==================================================

=== SUCCESS LOG - 2025-10-14 21:39:54 ===
Input file: /data/retarget/locomotion/raw/AMASS_SMPLXG/Eyes_Japan_Dataset/kawaguchi/turn-01-call-kawaguchi_stageii.npz
Output file: ../robot/ik_based/pkl/008746.pkl
Robot type: unitree_g1
Processing time: 148.74 seconds

STEP-BY-STEP TIMING:
  Step 1 - Load SMPLX:        9.46s
  Step 2 - Align FPS:         11.75s
  Step 3 - Init Retarget:     0.38s
  Step 4 - Init Visualization: 0.00s
  Step 5 - Process Frames:    125.61s (avg: 0.192s/frame)
  Step 6 - Convert Arrays:    0.00s
  Step 7 - Forward Kinematics: 0.86s
  Step 8 - Save Data:         0.00s
Status: SUCCESS
==================================================

=== SUCCESS LOG - 2025-10-14 21:40:17 ===
Input file: /data/retarget/locomotion/raw/AMASS_SMPLXG/Eyes_Japan_Dataset/kawaguchi/throw_toss-17-pass_to_back_light-kawaguchi_stageii.npz
Output file: ../robot/ik_based/pkl/008745.pkl
Robot type: unitree_g1
Processing time: 189.42 seconds

STEP-BY-STEP TIMING:
  Step 1 - Load SMPLX:        9.16s
  Step 2 - Align FPS:         11.40s
  Step 3 - Init Retarget:     0.36s
  Step 4 - Init Visualization: 0.00s
  Step 5 - Process Frames:    167.79s (avg: 0.281s/frame)
  Step 6 - Convert Arrays:    0.00s
  Step 7 - Forward Kinematics: 0.23s
  Step 8 - Save Data:         0.16s
Status: SUCCESS
==================================================

=== SUCCESS LOG - 2025-10-14 21:42:13 ===
Input file: /data/retarget/locomotion/raw/AMASS_SMPLXG/Eyes_Japan_Dataset/kawaguchi/turn-02-look_around-kawaguchi_stageii.npz
Output file: ../robot/ik_based/pkl/008747.pkl
Robot type: unitree_g1
Processing time: 252.30 seconds

STEP-BY-STEP TIMING:
  Step 1 - Load SMPLX:        9.74s
  Step 2 - Align FPS:         12.72s
  Step 3 - Init Retarget:     0.47s
  Step 4 - Init Visualization: 0.00s
  Step 5 - Process Frames:    227.85s (avg: 0.304s/frame)
  Step 6 - Convert Arrays:    0.00s
  Step 7 - Forward Kinematics: 1.07s
  Step 8 - Save Data:         0.04s
Status: SUCCESS
==================================================

=== SUCCESS LOG - 2025-10-14 21:42:15 ===
Input file: /data/retarget/locomotion/raw/AMASS_SMPLXG/Eyes_Japan_Dataset/kawaguchi/turn-03-look_at-kawaguchi_stageii.npz
Output file: ../robot/ik_based/pkl/008748.pkl
Robot type: unitree_g1
Processing time: 231.49 seconds

STEP-BY-STEP TIMING:
  Step 1 - Load SMPLX:        8.66s
  Step 2 - Align FPS:         14.23s
  Step 3 - Init Retarget:     0.98s
  Step 4 - Init Visualization: 0.00s
  Step 5 - Process Frames:    205.55s (avg: 0.305s/frame)
  Step 6 - Convert Arrays:    0.00s
  Step 7 - Forward Kinematics: 0.47s
  Step 8 - Save Data:         0.09s
Status: SUCCESS
==================================================

=== SUCCESS LOG - 2025-10-14 21:44:20 ===
Input file: /data/retarget/locomotion/raw/AMASS_SMPLXG/Eyes_Japan_Dataset/kawaguchi/turn-05-turn-kawaguchi_stageii.npz
Output file: ../robot/ik_based/pkl/008749.pkl
Robot type: unitree_g1
Processing time: 350.33 seconds

STEP-BY-STEP TIMING:
  Step 1 - Load SMPLX:        11.96s
  Step 2 - Align FPS:         15.54s
  Step 3 - Init Retarget:     0.37s
  Step 4 - Init Visualization: 0.00s
  Step 5 - Process Frames:    319.56s (avg: 0.435s/frame)
  Step 6 - Convert Arrays:    0.64s
  Step 7 - Forward Kinematics: 0.67s
  Step 8 - Save Data:         0.07s
Status: SUCCESS
==================================================

=== SUCCESS LOG - 2025-10-14 21:49:53 ===
Input file: /data/retarget/locomotion/raw/AMASS_SMPLXG/Eyes_Japan_Dataset/kudo/gesture_etc-11-hold_arms-kudo_stageii.npz
Output file: ../robot/ik_based/pkl/008751.pkl
Robot type: unitree_g1
Processing time: 574.60 seconds

STEP-BY-STEP TIMING:
  Step 1 - Load SMPLX:        15.77s
  Step 2 - Align FPS:         117.20s
  Step 3 - Init Retarget:     0.98s
  Step 4 - Init Visualization: 0.00s
  Step 5 - Process Frames:    439.45s (avg: 0.444s/frame)
  Step 6 - Convert Arrays:    0.00s
  Step 7 - Forward Kinematics: 0.77s
  Step 8 - Save Data:         0.07s
Status: SUCCESS
==================================================

=== SUCCESS LOG - 2025-10-14 21:49:58 ===
Input file: /data/retarget/locomotion/raw/AMASS_SMPLXG/Eyes_Japan_Dataset/kudo/gesture_etc-13-juggling_imaginary-kudo_stageii.npz
Output file: ../robot/ik_based/pkl/008753.pkl
Robot type: unitree_g1
Processing time: 461.87 seconds

STEP-BY-STEP TIMING:
  Step 1 - Load SMPLX:        23.48s
  Step 2 - Align FPS:         36.80s
  Step 3 - Init Retarget:     0.72s
  Step 4 - Init Visualization: 0.01s
  Step 5 - Process Frames:    399.92s (avg: 0.404s/frame)
  Step 6 - Convert Arrays:    0.07s
  Step 7 - Forward Kinematics: 0.40s
  Step 8 - Save Data:         0.06s
Status: SUCCESS
==================================================

=== SUCCESS LOG - 2025-10-14 21:53:39 ===
Input file: /data/retarget/locomotion/raw/AMASS_SMPLXG/Eyes_Japan_Dataset/kudo/gesture_etc-14-apologize-kudo_stageii.npz
Output file: ../robot/ik_based/pkl/008754.pkl
Robot type: unitree_g1
Processing time: 557.09 seconds

STEP-BY-STEP TIMING:
  Step 1 - Load SMPLX:        27.10s
  Step 2 - Align FPS:         53.02s
  Step 3 - Init Retarget:     0.41s
  Step 4 - Init Visualization: 0.00s
  Step 5 - Process Frames:    475.08s (avg: 0.480s/frame)
  Step 6 - Convert Arrays:    0.01s
  Step 7 - Forward Kinematics: 0.72s
  Step 8 - Save Data:         0.01s
Status: SUCCESS
==================================================

=== SUCCESS LOG - 2025-10-14 21:53:43 ===
Input file: /data/retarget/locomotion/raw/AMASS_SMPLXG/Eyes_Japan_Dataset/kudo/gesture_etc-12-juggling_real-kudo_stageii.npz
Output file: ../robot/ik_based/pkl/008752.pkl
Robot type: unitree_g1
Processing time: 689.33 seconds

STEP-BY-STEP TIMING:
  Step 1 - Load SMPLX:        20.48s
  Step 2 - Align FPS:         43.07s
  Step 3 - Init Retarget:     0.61s
  Step 4 - Init Visualization: 0.00s
  Step 5 - Process Frames:    624.35s (avg: 0.631s/frame)
  Step 6 - Convert Arrays:    0.04s
  Step 7 - Forward Kinematics: 0.30s
  Step 8 - Save Data:         0.05s
Status: SUCCESS
==================================================

=== SUCCESS LOG - 2025-10-14 21:55:36 ===
Input file: /data/retarget/locomotion/raw/AMASS_SMPLXG/Eyes_Japan_Dataset/kudo/gesture_etc-10-snip_nail-kudo_stageii.npz
Output file: ../robot/ik_based/pkl/008750.pkl
Robot type: unitree_g1
Processing time: 941.12 seconds

STEP-BY-STEP TIMING:
  Step 1 - Load SMPLX:        15.61s
  Step 2 - Align FPS:         166.59s
  Step 3 - Init Retarget:     0.56s
  Step 4 - Init Visualization: 0.00s
  Step 5 - Process Frames:    757.69s (avg: 0.410s/frame)
  Step 6 - Convert Arrays:    0.07s
  Step 7 - Forward Kinematics: 0.25s
  Step 8 - Save Data:         0.04s
Status: SUCCESS
==================================================

=== SUCCESS LOG - 2025-10-14 21:56:19 ===
Input file: /data/retarget/locomotion/raw/AMASS_SMPLXG/Eyes_Japan_Dataset/kudo/gesture_etc-18-eat-kudo_stageii.npz
Output file: ../robot/ik_based/pkl/008757.pkl
Robot type: unitree_g1
Processing time: 378.33 seconds

STEP-BY-STEP TIMING:
  Step 1 - Load SMPLX:        13.82s
  Step 2 - Align FPS:         39.25s
  Step 3 - Init Retarget:     1.10s
  Step 4 - Init Visualization: 0.00s
  Step 5 - Process Frames:    323.28s (avg: 0.327s/frame)
  Step 6 - Convert Arrays:    0.00s
  Step 7 - Forward Kinematics: 0.42s
  Step 8 - Save Data:         0.09s
Status: SUCCESS
==================================================

=== SUCCESS LOG - 2025-10-14 21:57:28 ===
Input file: /data/retarget/locomotion/raw/AMASS_SMPLXG/Eyes_Japan_Dataset/kudo/gesture_etc-16-dryer-kudo_stageii.npz
Output file: ../robot/ik_based/pkl/008756.pkl
Robot type: unitree_g1
Processing time: 453.19 seconds

STEP-BY-STEP TIMING:
  Step 1 - Load SMPLX:        17.09s
  Step 2 - Align FPS:         42.74s
  Step 3 - Init Retarget:     0.82s
  Step 4 - Init Visualization: 0.00s
  Step 5 - Process Frames:    391.86s (avg: 0.396s/frame)
  Step 6 - Convert Arrays:    0.05s
  Step 7 - Forward Kinematics: 0.25s
  Step 8 - Save Data:         0.08s
Status: SUCCESS
==================================================

=== SUCCESS LOG - 2025-10-14 22:01:57 ===
Input file: /data/retarget/locomotion/raw/AMASS_SMPLXG/Eyes_Japan_Dataset/kudo/gesture_etc-21-clapping-kudo_stageii.npz
Output file: ../robot/ik_based/pkl/008759.pkl
Robot type: unitree_g1
Processing time: 491.40 seconds

STEP-BY-STEP TIMING:
  Step 1 - Load SMPLX:        24.38s
  Step 2 - Align FPS:         71.46s
  Step 3 - Init Retarget:     0.51s
  Step 4 - Init Visualization: 0.00s
  Step 5 - Process Frames:    394.11s (avg: 0.398s/frame)
  Step 6 - Convert Arrays:    0.00s
  Step 7 - Forward Kinematics: 0.44s
  Step 8 - Save Data:         0.05s
Status: SUCCESS
==================================================

=== SUCCESS LOG - 2025-10-14 22:02:45 ===
Input file: /data/retarget/locomotion/raw/AMASS_SMPLXG/Eyes_Japan_Dataset/kudo/gesture_etc-19-fold_legs-kudo_stageii.npz
Output file: ../robot/ik_based/pkl/008758.pkl
Robot type: unitree_g1
Processing time: 543.43 seconds

STEP-BY-STEP TIMING:
  Step 1 - Load SMPLX:        21.84s
  Step 2 - Align FPS:         69.19s
  Step 3 - Init Retarget:     0.54s
  Step 4 - Init Visualization: 0.00s
  Step 5 - Process Frames:    451.34s (avg: 0.456s/frame)
  Step 6 - Convert Arrays:    0.00s
  Step 7 - Forward Kinematics: 0.19s
  Step 8 - Save Data:         0.03s
Status: SUCCESS
==================================================

=== SUCCESS LOG - 2025-10-14 22:03:19 ===
Input file: /data/retarget/locomotion/raw/AMASS_SMPLXG/Eyes_Japan_Dataset/kudo/gesture_etc-22-mobile_receive-kudo_stageii.npz
Output file: ../robot/ik_based/pkl/008760.pkl
Robot type: unitree_g1
Processing time: 460.75 seconds

STEP-BY-STEP TIMING:
  Step 1 - Load SMPLX:        12.70s
  Step 2 - Align FPS:         69.20s
  Step 3 - Init Retarget:     1.45s
  Step 4 - Init Visualization: 0.00s
  Step 5 - Process Frames:    376.00s (avg: 0.380s/frame)
  Step 6 - Convert Arrays:    0.08s
  Step 7 - Forward Kinematics: 0.60s
  Step 8 - Save Data:         0.02s
Status: SUCCESS
==================================================

=== SUCCESS LOG - 2025-10-14 22:03:54 ===
Input file: /data/retarget/locomotion/raw/AMASS_SMPLXG/Eyes_Japan_Dataset/kudo/gesture_etc-23-mobile_call-kudo_stageii.npz
Output file: ../robot/ik_based/pkl/008761.pkl
Robot type: unitree_g1
Processing time: 453.03 seconds

STEP-BY-STEP TIMING:
  Step 1 - Load SMPLX:        20.58s
  Step 2 - Align FPS:         60.50s
  Step 3 - Init Retarget:     0.60s
  Step 4 - Init Visualization: 0.00s
  Step 5 - Process Frames:    370.39s (avg: 0.374s/frame)
  Step 6 - Convert Arrays:    0.00s
  Step 7 - Forward Kinematics: 0.27s
  Step 8 - Save Data:         0.13s
Status: SUCCESS
==================================================

=== SUCCESS LOG - 2025-10-14 22:05:36 ===
Input file: /data/retarget/locomotion/raw/AMASS_SMPLXG/Eyes_Japan_Dataset/kudo/gesture_etc-25-magic-kudo_stageii.npz
Output file: ../robot/ik_based/pkl/008762.pkl
Robot type: unitree_g1
Processing time: 486.60 seconds

STEP-BY-STEP TIMING:
  Step 1 - Load SMPLX:        10.91s
  Step 2 - Align FPS:         57.02s
  Step 3 - Init Retarget:     1.30s
  Step 4 - Init Visualization: 0.00s
  Step 5 - Process Frames:    416.59s (avg: 0.426s/frame)
  Step 6 - Convert Arrays:    0.04s
  Step 7 - Forward Kinematics: 0.37s
  Step 8 - Save Data:         0.04s
Status: SUCCESS
==================================================

=== SUCCESS LOG - 2025-10-14 22:08:17 ===
Input file: /data/retarget/locomotion/raw/AMASS_SMPLXG/Eyes_Japan_Dataset/kudo/gesture_etc-26-hit_mosquito-kudo_stageii.npz
Output file: ../robot/ik_based/pkl/008763.pkl
Robot type: unitree_g1
Processing time: 377.97 seconds

STEP-BY-STEP TIMING:
  Step 1 - Load SMPLX:        11.25s
  Step 2 - Align FPS:         30.18s
  Step 3 - Init Retarget:     0.83s
  Step 4 - Init Visualization: 0.00s
  Step 5 - Process Frames:    334.70s (avg: 0.338s/frame)
  Step 6 - Convert Arrays:    0.10s
  Step 7 - Forward Kinematics: 0.39s
  Step 8 - Save Data:         0.02s
Status: SUCCESS
==================================================

=== SUCCESS LOG - 2025-10-14 22:11:09 ===
Input file: /data/retarget/locomotion/raw/AMASS_SMPLXG/Eyes_Japan_Dataset/kudo/gesture_etc-27-hit_cockroach-kudo_stageii.npz
Output file: ../robot/ik_based/pkl/008764.pkl
Robot type: unitree_g1
Processing time: 502.26 seconds

STEP-BY-STEP TIMING:
  Step 1 - Load SMPLX:        17.92s
  Step 2 - Align FPS:         77.22s
  Step 3 - Init Retarget:     1.03s
  Step 4 - Init Visualization: 0.00s
  Step 5 - Process Frames:    404.99s (avg: 0.409s/frame)
  Step 6 - Convert Arrays:    0.00s
  Step 7 - Forward Kinematics: 0.55s
  Step 8 - Save Data:         0.31s
Status: SUCCESS
==================================================

=== SUCCESS LOG - 2025-10-14 22:12:18 ===
Input file: /data/retarget/locomotion/raw/AMASS_SMPLXG/Eyes_Japan_Dataset/kudo/gesture_etc-30-fxxk-kudo_stageii.npz
Output file: ../robot/ik_based/pkl/008766.pkl
Robot type: unitree_g1
Processing time: 501.65 seconds

STEP-BY-STEP TIMING:
  Step 1 - Load SMPLX:        14.76s
  Step 2 - Align FPS:         50.97s
  Step 3 - Init Retarget:     0.90s
  Step 4 - Init Visualization: 0.06s
  Step 5 - Process Frames:    434.19s (avg: 0.439s/frame)
  Step 6 - Convert Arrays:    0.01s
  Step 7 - Forward Kinematics: 0.27s
  Step 8 - Save Data:         0.07s
Status: SUCCESS
==================================================

=== SUCCESS LOG - 2025-10-14 22:12:37 ===
Input file: /data/retarget/locomotion/raw/AMASS_SMPLXG/Eyes_Japan_Dataset/kudo/gesture_etc-29-pantomime-kudo_stageii.npz
Output file: ../robot/ik_based/pkl/008765.pkl
Robot type: unitree_g1
Processing time: 554.38 seconds

STEP-BY-STEP TIMING:
  Step 1 - Load SMPLX:        21.30s
  Step 2 - Align FPS:         63.14s
  Step 3 - Init Retarget:     0.96s
  Step 4 - Init Visualization: 0.00s
  Step 5 - Process Frames:    468.17s (avg: 0.473s/frame)
  Step 6 - Convert Arrays:    0.10s
  Step 7 - Forward Kinematics: 0.32s
  Step 8 - Save Data:         0.05s
Status: SUCCESS
==================================================

=== SUCCESS LOG - 2025-10-14 22:13:07 ===
Input file: /data/retarget/locomotion/raw/AMASS_SMPLXG/Eyes_Japan_Dataset/kudo/gesture_etc-32-no-kudo_stageii.npz
Output file: ../robot/ik_based/pkl/008767.pkl
Robot type: unitree_g1
Processing time: 448.66 seconds

STEP-BY-STEP TIMING:
  Step 1 - Load SMPLX:        17.03s
  Step 2 - Align FPS:         62.04s
  Step 3 - Init Retarget:     0.48s
  Step 4 - Init Visualization: 0.00s
  Step 5 - Process Frames:    367.90s (avg: 0.372s/frame)
  Step 6 - Convert Arrays:    0.00s
  Step 7 - Forward Kinematics: 0.39s
  Step 8 - Save Data:         0.43s
Status: SUCCESS
==================================================
