
=== SUCCESS LOG - 2025-10-14 17:31:05 ===
Input file: /data/retarget/locomotion/raw/AMASS_SMPLXG/WEIZMANN/67/Fast_StraightLong(11)_stageii.npz
Output file: ../robot/ik_based/pkl/016000.pkl
Robot type: unitree_g1
Processing time: 4.76 seconds

STEP-BY-STEP TIMING:
  Step 1 - Load SMPLX:        0.85s
  Step 2 - Align FPS:         0.25s
  Step 3 - Init Retarget:     1.15s
  Step 4 - Init Visualization: 0.00s
  Step 5 - Process Frames:    1.61s (avg: 0.037s/frame)
  Step 6 - Convert Arrays:    0.00s
  Step 7 - Forward Kinematics: 0.88s
  Step 8 - Save Data:         0.00s
Status: SUCCESS
==================================================

=== FILE SUCCESS - 2025-10-14 17:31:05 ===
File index: 016000
File number: 1/1757
Input file: /data/retarget/locomotion/raw/AMASS_SMPLXG/WEIZMANN/67/Fast_StraightLong(11)_stageii.npz
Output file: ../robot/ik_based/pkl/016000.pkl
Processing time: 4.76 seconds
Total file time: 4.87 seconds
Status: SUCCESS
==================================================

=== SUCCESS LOG - 2025-10-14 17:31:08 ===
Input file: /data/retarget/locomotion/raw/AMASS_SMPLXG/WEIZMANN/67/Fast_StraightLong(12)_stageii.npz
Output file: ../robot/ik_based/pkl/016001.pkl
Robot type: unitree_g1
Processing time: 3.20 seconds

STEP-BY-STEP TIMING:
  Step 1 - Load SMPLX:        0.77s
  Step 2 - Align FPS:         0.28s
  Step 3 - Init Retarget:     0.23s
  Step 4 - Init Visualization: 0.00s
  Step 5 - Process Frames:    1.48s (avg: 0.028s/frame)
  Step 6 - Convert Arrays:    0.00s
  Step 7 - Forward Kinematics: 0.41s
  Step 8 - Save Data:         0.00s
Status: SUCCESS
==================================================

=== FILE SUCCESS - 2025-10-14 17:31:08 ===
File index: 016001
File number: 2/1757
Input file: /data/retarget/locomotion/raw/AMASS_SMPLXG/WEIZMANN/67/Fast_StraightLong(12)_stageii.npz
Output file: ../robot/ik_based/pkl/016001.pkl
Processing time: 3.20 seconds
Total file time: 3.31 seconds
Status: SUCCESS
==================================================

=== SUCCESS LOG - 2025-10-14 17:31:11 ===
Input file: /data/retarget/locomotion/raw/AMASS_SMPLXG/WEIZMANN/67/Fast_StraightLong(13)_stageii.npz
Output file: ../robot/ik_based/pkl/016002.pkl
Robot type: unitree_g1
Processing time: 2.91 seconds

STEP-BY-STEP TIMING:
  Step 1 - Load SMPLX:        0.77s
  Step 2 - Align FPS:         0.32s
  Step 3 - Init Retarget:     0.29s
  Step 4 - Init Visualization: 0.00s
  Step 5 - Process Frames:    1.29s (avg: 0.028s/frame)
  Step 6 - Convert Arrays:    0.00s
  Step 7 - Forward Kinematics: 0.21s
  Step 8 - Save Data:         0.00s
Status: SUCCESS
==================================================

=== FILE SUCCESS - 2025-10-14 17:31:11 ===
File index: 016002
File number: 3/1757
Input file: /data/retarget/locomotion/raw/AMASS_SMPLXG/WEIZMANN/67/Fast_StraightLong(13)_stageii.npz
Output file: ../robot/ik_based/pkl/016002.pkl
Processing time: 2.91 seconds
Total file time: 3.00 seconds
Status: SUCCESS
==================================================

=== SUCCESS LOG - 2025-10-14 17:31:14 ===
Input file: /data/retarget/locomotion/raw/AMASS_SMPLXG/WEIZMANN/67/Fast_StraightLong(14)_stageii.npz
Output file: ../robot/ik_based/pkl/016003.pkl
Robot type: unitree_g1
Processing time: 2.52 seconds

STEP-BY-STEP TIMING:
  Step 1 - Load SMPLX:        0.77s
  Step 2 - Align FPS:         0.22s
  Step 3 - Init Retarget:     0.25s
  Step 4 - Init Visualization: 0.00s
  Step 5 - Process Frames:    1.23s (avg: 0.030s/frame)
  Step 6 - Convert Arrays:    0.00s
  Step 7 - Forward Kinematics: 0.02s
  Step 8 - Save Data:         0.00s
Status: SUCCESS
==================================================

=== FILE SUCCESS - 2025-10-14 17:31:14 ===
File index: 016003
File number: 4/1757
Input file: /data/retarget/locomotion/raw/AMASS_SMPLXG/WEIZMANN/67/Fast_StraightLong(14)_stageii.npz
Output file: ../robot/ik_based/pkl/016003.pkl
Processing time: 2.52 seconds
Total file time: 2.61 seconds
Status: SUCCESS
==================================================

=== SUCCESS LOG - 2025-10-14 17:31:16 ===
Input file: /data/retarget/locomotion/raw/AMASS_SMPLXG/WEIZMANN/67/Fast_StraightLong(15)_stageii.npz
Output file: ../robot/ik_based/pkl/016004.pkl
Robot type: unitree_g1
Processing time: 2.43 seconds

STEP-BY-STEP TIMING:
  Step 1 - Load SMPLX:        0.76s
  Step 2 - Align FPS:         0.21s
  Step 3 - Init Retarget:     0.18s
  Step 4 - Init Visualization: 0.00s
  Step 5 - Process Frames:    1.24s (avg: 0.030s/frame)
  Step 6 - Convert Arrays:    0.00s
  Step 7 - Forward Kinematics: 0.02s
  Step 8 - Save Data:         0.00s
Status: SUCCESS
==================================================

=== FILE SUCCESS - 2025-10-14 17:31:16 ===
File index: 016004
File number: 5/1757
Input file: /data/retarget/locomotion/raw/AMASS_SMPLXG/WEIZMANN/67/Fast_StraightLong(15)_stageii.npz
Output file: ../robot/ik_based/pkl/016004.pkl
Processing time: 2.43 seconds
Total file time: 2.52 seconds
Status: SUCCESS
==================================================

=== SUCCESS LOG - 2025-10-14 17:31:19 ===
Input file: /data/retarget/locomotion/raw/AMASS_SMPLXG/WEIZMANN/67/Fast_StraightLong(16)_stageii.npz
Output file: ../robot/ik_based/pkl/016005.pkl
Robot type: unitree_g1
Processing time: 2.33 seconds

STEP-BY-STEP TIMING:
  Step 1 - Load SMPLX:        0.83s
  Step 2 - Align FPS:         0.20s
  Step 3 - Init Retarget:     0.18s
  Step 4 - Init Visualization: 0.00s
  Step 5 - Process Frames:    1.08s (avg: 0.029s/frame)
  Step 6 - Convert Arrays:    0.00s
  Step 7 - Forward Kinematics: 0.02s
  Step 8 - Save Data:         0.00s
Status: SUCCESS
==================================================

=== FILE SUCCESS - 2025-10-14 17:31:19 ===
File index: 016005
File number: 6/1757
Input file: /data/retarget/locomotion/raw/AMASS_SMPLXG/WEIZMANN/67/Fast_StraightLong(16)_stageii.npz
Output file: ../robot/ik_based/pkl/016005.pkl
Processing time: 2.33 seconds
Total file time: 2.41 seconds
Status: SUCCESS
==================================================

=== SUCCESS LOG - 2025-10-14 17:31:21 ===
Input file: /data/retarget/locomotion/raw/AMASS_SMPLXG/WEIZMANN/67/Fast_StraightLong(17)_stageii.npz
Output file: ../robot/ik_based/pkl/016006.pkl
Robot type: unitree_g1
Processing time: 2.37 seconds

STEP-BY-STEP TIMING:
  Step 1 - Load SMPLX:        0.74s
  Step 2 - Align FPS:         0.21s
  Step 3 - Init Retarget:     0.22s
  Step 4 - Init Visualization: 0.00s
  Step 5 - Process Frames:    1.15s (avg: 0.029s/frame)
  Step 6 - Convert Arrays:    0.00s
  Step 7 - Forward Kinematics: 0.02s
  Step 8 - Save Data:         0.00s
Status: SUCCESS
==================================================

=== FILE SUCCESS - 2025-10-14 17:31:21 ===
File index: 016006
File number: 7/1757
Input file: /data/retarget/locomotion/raw/AMASS_SMPLXG/WEIZMANN/67/Fast_StraightLong(17)_stageii.npz
Output file: ../robot/ik_based/pkl/016006.pkl
Processing time: 2.37 seconds
Total file time: 2.45 seconds
Status: SUCCESS
==================================================

=== SUCCESS LOG - 2025-10-14 17:31:24 ===
Input file: /data/retarget/locomotion/raw/AMASS_SMPLXG/WEIZMANN/67/Fast_StraightLong(18)_stageii.npz
Output file: ../robot/ik_based/pkl/016007.pkl
Robot type: unitree_g1
Processing time: 2.51 seconds

STEP-BY-STEP TIMING:
  Step 1 - Load SMPLX:        0.75s
  Step 2 - Align FPS:         0.26s
  Step 3 - Init Retarget:     0.20s
  Step 4 - Init Visualization: 0.00s
  Step 5 - Process Frames:    1.25s (avg: 0.031s/frame)
  Step 6 - Convert Arrays:    0.00s
  Step 7 - Forward Kinematics: 0.02s
  Step 8 - Save Data:         0.00s
Status: SUCCESS
==================================================

=== FILE SUCCESS - 2025-10-14 17:31:24 ===
File index: 016007
File number: 8/1757
Input file: /data/retarget/locomotion/raw/AMASS_SMPLXG/WEIZMANN/67/Fast_StraightLong(18)_stageii.npz
Output file: ../robot/ik_based/pkl/016007.pkl
Processing time: 2.51 seconds
Total file time: 2.59 seconds
Status: SUCCESS
==================================================

=== SUCCESS LOG - 2025-10-14 17:31:26 ===
Input file: /data/retarget/locomotion/raw/AMASS_SMPLXG/WEIZMANN/67/Fast_StraightLong(19)_stageii.npz
Output file: ../robot/ik_based/pkl/016008.pkl
Robot type: unitree_g1
Processing time: 2.39 seconds

STEP-BY-STEP TIMING:
  Step 1 - Load SMPLX:        0.75s
  Step 2 - Align FPS:         0.21s
  Step 3 - Init Retarget:     0.24s
  Step 4 - Init Visualization: 0.00s
  Step 5 - Process Frames:    1.14s (avg: 0.029s/frame)
  Step 6 - Convert Arrays:    0.00s
  Step 7 - Forward Kinematics: 0.02s
  Step 8 - Save Data:         0.00s
Status: SUCCESS
==================================================

=== FILE SUCCESS - 2025-10-14 17:31:26 ===
File index: 016008
File number: 9/1757
Input file: /data/retarget/locomotion/raw/AMASS_SMPLXG/WEIZMANN/67/Fast_StraightLong(19)_stageii.npz
Output file: ../robot/ik_based/pkl/016008.pkl
Processing time: 2.39 seconds
Total file time: 2.49 seconds
Status: SUCCESS
==================================================

=== SUCCESS LOG - 2025-10-14 17:31:29 ===
Input file: /data/retarget/locomotion/raw/AMASS_SMPLXG/WEIZMANN/67/Fast_StraightLong(2)_stageii.npz
Output file: ../robot/ik_based/pkl/016009.pkl
Robot type: unitree_g1
Processing time: 2.39 seconds

STEP-BY-STEP TIMING:
  Step 1 - Load SMPLX:        0.75s
  Step 2 - Align FPS:         0.21s
  Step 3 - Init Retarget:     0.21s
  Step 4 - Init Visualization: 0.00s
  Step 5 - Process Frames:    1.18s (avg: 0.029s/frame)
  Step 6 - Convert Arrays:    0.00s
  Step 7 - Forward Kinematics: 0.02s
  Step 8 - Save Data:         0.00s
Status: SUCCESS
==================================================

=== FILE SUCCESS - 2025-10-14 17:31:29 ===
File index: 016009
File number: 10/1757
Input file: /data/retarget/locomotion/raw/AMASS_SMPLXG/WEIZMANN/67/Fast_StraightLong(2)_stageii.npz
Output file: ../robot/ik_based/pkl/016009.pkl
Processing time: 2.39 seconds
Total file time: 2.50 seconds
Status: SUCCESS
==================================================

=== SUCCESS LOG - 2025-10-14 17:31:31 ===
Input file: /data/retarget/locomotion/raw/AMASS_SMPLXG/WEIZMANN/67/Fast_StraightLong(20)_stageii.npz
Output file: ../robot/ik_based/pkl/016010.pkl
Robot type: unitree_g1
Processing time: 2.42 seconds

STEP-BY-STEP TIMING:
  Step 1 - Load SMPLX:        0.75s
  Step 2 - Align FPS:         0.21s
  Step 3 - Init Retarget:     0.18s
  Step 4 - Init Visualization: 0.00s
  Step 5 - Process Frames:    1.23s (avg: 0.030s/frame)
  Step 6 - Convert Arrays:    0.00s
  Step 7 - Forward Kinematics: 0.02s
  Step 8 - Save Data:         0.00s
Status: SUCCESS
==================================================

=== FILE SUCCESS - 2025-10-14 17:31:31 ===
File index: 016010
File number: 11/1757
Input file: /data/retarget/locomotion/raw/AMASS_SMPLXG/WEIZMANN/67/Fast_StraightLong(20)_stageii.npz
Output file: ../robot/ik_based/pkl/016010.pkl
Processing time: 2.42 seconds
Total file time: 2.50 seconds
Status: SUCCESS
==================================================

=== SUCCESS LOG - 2025-10-14 17:31:34 ===
Input file: /data/retarget/locomotion/raw/AMASS_SMPLXG/WEIZMANN/67/Fast_StraightLong(21)_stageii.npz
Output file: ../robot/ik_based/pkl/016011.pkl
Robot type: unitree_g1
Processing time: 2.92 seconds

STEP-BY-STEP TIMING:
  Step 1 - Load SMPLX:        0.81s
  Step 2 - Align FPS:         0.27s
  Step 3 - Init Retarget:     0.21s
  Step 4 - Init Visualization: 0.00s
  Step 5 - Process Frames:    1.59s (avg: 0.030s/frame)
  Step 6 - Convert Arrays:    0.00s
  Step 7 - Forward Kinematics: 0.02s
  Step 8 - Save Data:         0.00s
Status: SUCCESS
==================================================

=== FILE SUCCESS - 2025-10-14 17:31:34 ===
File index: 016011
File number: 12/1757
Input file: /data/retarget/locomotion/raw/AMASS_SMPLXG/WEIZMANN/67/Fast_StraightLong(21)_stageii.npz
Output file: ../robot/ik_based/pkl/016011.pkl
Processing time: 2.92 seconds
Total file time: 3.02 seconds
Status: SUCCESS
==================================================

=== SUCCESS LOG - 2025-10-14 17:31:37 ===
Input file: /data/retarget/locomotion/raw/AMASS_SMPLXG/WEIZMANN/67/Fast_StraightLong(22)_stageii.npz
Output file: ../robot/ik_based/pkl/016012.pkl
Robot type: unitree_g1
Processing time: 2.29 seconds

STEP-BY-STEP TIMING:
  Step 1 - Load SMPLX:        0.75s
  Step 2 - Align FPS:         0.20s
  Step 3 - Init Retarget:     0.18s
  Step 4 - Init Visualization: 0.00s
  Step 5 - Process Frames:    1.11s (avg: 0.029s/frame)
  Step 6 - Convert Arrays:    0.00s
  Step 7 - Forward Kinematics: 0.02s
  Step 8 - Save Data:         0.00s
Status: SUCCESS
==================================================

=== FILE SUCCESS - 2025-10-14 17:31:37 ===
File index: 016012
File number: 13/1757
Input file: /data/retarget/locomotion/raw/AMASS_SMPLXG/WEIZMANN/67/Fast_StraightLong(22)_stageii.npz
Output file: ../robot/ik_based/pkl/016012.pkl
Processing time: 2.29 seconds
Total file time: 2.37 seconds
Status: SUCCESS
==================================================

=== SUCCESS LOG - 2025-10-14 17:31:39 ===
Input file: /data/retarget/locomotion/raw/AMASS_SMPLXG/WEIZMANN/67/Fast_StraightLong(23)_stageii.npz
Output file: ../robot/ik_based/pkl/016013.pkl
Robot type: unitree_g1
Processing time: 2.56 seconds

STEP-BY-STEP TIMING:
  Step 1 - Load SMPLX:        0.76s
  Step 2 - Align FPS:         0.23s
  Step 3 - Init Retarget:     0.18s
  Step 4 - Init Visualization: 0.00s
  Step 5 - Process Frames:    1.34s (avg: 0.030s/frame)
  Step 6 - Convert Arrays:    0.00s
  Step 7 - Forward Kinematics: 0.02s
  Step 8 - Save Data:         0.00s
Status: SUCCESS
==================================================

=== FILE SUCCESS - 2025-10-14 17:31:39 ===
File index: 016013
File number: 14/1757
Input file: /data/retarget/locomotion/raw/AMASS_SMPLXG/WEIZMANN/67/Fast_StraightLong(23)_stageii.npz
Output file: ../robot/ik_based/pkl/016013.pkl
Processing time: 2.56 seconds
Total file time: 2.69 seconds
Status: SUCCESS
==================================================

=== SUCCESS LOG - 2025-10-14 17:31:43 ===
Input file: /data/retarget/locomotion/raw/AMASS_SMPLXG/WEIZMANN/67/Fast_StraightLong(24)_stageii.npz
Output file: ../robot/ik_based/pkl/016014.pkl
Robot type: unitree_g1
Processing time: 3.47 seconds

STEP-BY-STEP TIMING:
  Step 1 - Load SMPLX:        0.75s
  Step 2 - Align FPS:         0.21s
  Step 3 - Init Retarget:     0.17s
  Step 4 - Init Visualization: 0.00s
  Step 5 - Process Frames:    2.28s (avg: 0.056s/frame)
  Step 6 - Convert Arrays:    0.00s
  Step 7 - Forward Kinematics: 0.02s
  Step 8 - Save Data:         0.00s
Status: SUCCESS
==================================================

=== FILE SUCCESS - 2025-10-14 17:31:43 ===
File index: 016014
File number: 15/1757
Input file: /data/retarget/locomotion/raw/AMASS_SMPLXG/WEIZMANN/67/Fast_StraightLong(24)_stageii.npz
Output file: ../robot/ik_based/pkl/016014.pkl
Processing time: 3.47 seconds
Total file time: 3.55 seconds
Status: SUCCESS
==================================================

=== SUCCESS LOG - 2025-10-14 17:31:46 ===
Input file: /data/retarget/locomotion/raw/AMASS_SMPLXG/WEIZMANN/67/Fast_StraightLong(25)_stageii.npz
Output file: ../robot/ik_based/pkl/016015.pkl
Robot type: unitree_g1
Processing time: 2.55 seconds

STEP-BY-STEP TIMING:
  Step 1 - Load SMPLX:        0.74s
  Step 2 - Align FPS:         0.22s
  Step 3 - Init Retarget:     0.21s
  Step 4 - Init Visualization: 0.00s
  Step 5 - Process Frames:    1.32s (avg: 0.032s/frame)
  Step 6 - Convert Arrays:    0.00s
  Step 7 - Forward Kinematics: 0.02s
  Step 8 - Save Data:         0.00s
Status: SUCCESS
==================================================

=== FILE SUCCESS - 2025-10-14 17:31:46 ===
File index: 016015
File number: 16/1757
Input file: /data/retarget/locomotion/raw/AMASS_SMPLXG/WEIZMANN/67/Fast_StraightLong(25)_stageii.npz
Output file: ../robot/ik_based/pkl/016015.pkl
Processing time: 2.55 seconds
Total file time: 2.64 seconds
Status: SUCCESS
==================================================

=== SUCCESS LOG - 2025-10-14 17:31:48 ===
Input file: /data/retarget/locomotion/raw/AMASS_SMPLXG/WEIZMANN/67/Fast_StraightLong(26)_stageii.npz
Output file: ../robot/ik_based/pkl/016016.pkl
Robot type: unitree_g1
Processing time: 2.34 seconds

STEP-BY-STEP TIMING:
  Step 1 - Load SMPLX:        0.76s
  Step 2 - Align FPS:         0.21s
  Step 3 - Init Retarget:     0.18s
  Step 4 - Init Visualization: 0.00s
  Step 5 - Process Frames:    1.14s (avg: 0.028s/frame)
  Step 6 - Convert Arrays:    0.00s
  Step 7 - Forward Kinematics: 0.02s
  Step 8 - Save Data:         0.00s
Status: SUCCESS
==================================================

=== FILE SUCCESS - 2025-10-14 17:31:48 ===
File index: 016016
File number: 17/1757
Input file: /data/retarget/locomotion/raw/AMASS_SMPLXG/WEIZMANN/67/Fast_StraightLong(26)_stageii.npz
Output file: ../robot/ik_based/pkl/016016.pkl
Processing time: 2.34 seconds
Total file time: 2.43 seconds
Status: SUCCESS
==================================================

=== SUCCESS LOG - 2025-10-14 17:31:50 ===
Input file: /data/retarget/locomotion/raw/AMASS_SMPLXG/WEIZMANN/67/Fast_StraightLong(27)_stageii.npz
Output file: ../robot/ik_based/pkl/016017.pkl
Robot type: unitree_g1
Processing time: 2.39 seconds

STEP-BY-STEP TIMING:
  Step 1 - Load SMPLX:        0.74s
  Step 2 - Align FPS:         0.22s
  Step 3 - Init Retarget:     0.17s
  Step 4 - Init Visualization: 0.00s
  Step 5 - Process Frames:    1.21s (avg: 0.029s/frame)
  Step 6 - Convert Arrays:    0.00s
  Step 7 - Forward Kinematics: 0.02s
  Step 8 - Save Data:         0.00s
Status: SUCCESS
==================================================

=== FILE SUCCESS - 2025-10-14 17:31:51 ===
File index: 016017
File number: 18/1757
Input file: /data/retarget/locomotion/raw/AMASS_SMPLXG/WEIZMANN/67/Fast_StraightLong(27)_stageii.npz
Output file: ../robot/ik_based/pkl/016017.pkl
Processing time: 2.39 seconds
Total file time: 2.49 seconds
Status: SUCCESS
==================================================

=== SUCCESS LOG - 2025-10-14 17:31:53 ===
Input file: /data/retarget/locomotion/raw/AMASS_SMPLXG/WEIZMANN/67/Fast_StraightLong(28)_stageii.npz
Output file: ../robot/ik_based/pkl/016018.pkl
Robot type: unitree_g1
Processing time: 2.44 seconds

STEP-BY-STEP TIMING:
  Step 1 - Load SMPLX:        0.74s
  Step 2 - Align FPS:         0.22s
  Step 3 - Init Retarget:     0.18s
  Step 4 - Init Visualization: 0.00s
  Step 5 - Process Frames:    1.26s (avg: 0.030s/frame)
  Step 6 - Convert Arrays:    0.00s
  Step 7 - Forward Kinematics: 0.02s
  Step 8 - Save Data:         0.00s
Status: SUCCESS
==================================================

=== FILE SUCCESS - 2025-10-14 17:31:53 ===
File index: 016018
File number: 19/1757
Input file: /data/retarget/locomotion/raw/AMASS_SMPLXG/WEIZMANN/67/Fast_StraightLong(28)_stageii.npz
Output file: ../robot/ik_based/pkl/016018.pkl
Processing time: 2.44 seconds
Total file time: 2.53 seconds
Status: SUCCESS
==================================================

=== SUCCESS LOG - 2025-10-14 17:31:56 ===
Input file: /data/retarget/locomotion/raw/AMASS_SMPLXG/WEIZMANN/67/Fast_StraightLong(29)_stageii.npz
Output file: ../robot/ik_based/pkl/016019.pkl
Robot type: unitree_g1
Processing time: 2.46 seconds

STEP-BY-STEP TIMING:
  Step 1 - Load SMPLX:        0.73s
  Step 2 - Align FPS:         0.20s
  Step 3 - Init Retarget:     0.19s
  Step 4 - Init Visualization: 0.00s
  Step 5 - Process Frames:    1.29s (avg: 0.034s/frame)
  Step 6 - Convert Arrays:    0.00s
  Step 7 - Forward Kinematics: 0.02s
  Step 8 - Save Data:         0.00s
Status: SUCCESS
==================================================

=== FILE SUCCESS - 2025-10-14 17:31:56 ===
File index: 016019
File number: 20/1757
Input file: /data/retarget/locomotion/raw/AMASS_SMPLXG/WEIZMANN/67/Fast_StraightLong(29)_stageii.npz
Output file: ../robot/ik_based/pkl/016019.pkl
Processing time: 2.46 seconds
Total file time: 2.56 seconds
Status: SUCCESS
==================================================

=== SUCCESS LOG - 2025-10-14 17:31:58 ===
Input file: /data/retarget/locomotion/raw/AMASS_SMPLXG/WEIZMANN/67/Fast_StraightLong(3)_stageii.npz
Output file: ../robot/ik_based/pkl/016020.pkl
Robot type: unitree_g1
Processing time: 2.54 seconds

STEP-BY-STEP TIMING:
  Step 1 - Load SMPLX:        0.75s
  Step 2 - Align FPS:         0.23s
  Step 3 - Init Retarget:     0.23s
  Step 4 - Init Visualization: 0.00s
  Step 5 - Process Frames:    1.29s (avg: 0.029s/frame)
  Step 6 - Convert Arrays:    0.00s
  Step 7 - Forward Kinematics: 0.02s
  Step 8 - Save Data:         0.00s
Status: SUCCESS
==================================================

=== FILE SUCCESS - 2025-10-14 17:31:58 ===
File index: 016020
File number: 21/1757
Input file: /data/retarget/locomotion/raw/AMASS_SMPLXG/WEIZMANN/67/Fast_StraightLong(3)_stageii.npz
Output file: ../robot/ik_based/pkl/016020.pkl
Processing time: 2.54 seconds
Total file time: 2.65 seconds
Status: SUCCESS
==================================================

=== SUCCESS LOG - 2025-10-14 17:32:01 ===
Input file: /data/retarget/locomotion/raw/AMASS_SMPLXG/WEIZMANN/67/Fast_StraightLong(30)_stageii.npz
Output file: ../robot/ik_based/pkl/016021.pkl
Robot type: unitree_g1
Processing time: 2.58 seconds

STEP-BY-STEP TIMING:
  Step 1 - Load SMPLX:        0.76s
  Step 2 - Align FPS:         0.22s
  Step 3 - Init Retarget:     0.20s
  Step 4 - Init Visualization: 0.00s
  Step 5 - Process Frames:    1.35s (avg: 0.031s/frame)
  Step 6 - Convert Arrays:    0.00s
  Step 7 - Forward Kinematics: 0.02s
  Step 8 - Save Data:         0.00s
Status: SUCCESS
==================================================

=== FILE SUCCESS - 2025-10-14 17:32:01 ===
File index: 016021
File number: 22/1757
Input file: /data/retarget/locomotion/raw/AMASS_SMPLXG/WEIZMANN/67/Fast_StraightLong(30)_stageii.npz
Output file: ../robot/ik_based/pkl/016021.pkl
Processing time: 2.58 seconds
Total file time: 2.66 seconds
Status: SUCCESS
==================================================

=== SUCCESS LOG - 2025-10-14 17:32:03 ===
Input file: /data/retarget/locomotion/raw/AMASS_SMPLXG/WEIZMANN/67/Fast_StraightLong(31)_stageii.npz
Output file: ../robot/ik_based/pkl/016022.pkl
Robot type: unitree_g1
Processing time: 2.42 seconds

STEP-BY-STEP TIMING:
  Step 1 - Load SMPLX:        0.77s
  Step 2 - Align FPS:         0.22s
  Step 3 - Init Retarget:     0.18s
  Step 4 - Init Visualization: 0.00s
  Step 5 - Process Frames:    1.20s (avg: 0.031s/frame)
  Step 6 - Convert Arrays:    0.00s
  Step 7 - Forward Kinematics: 0.02s
  Step 8 - Save Data:         0.00s
Status: SUCCESS
==================================================

=== FILE SUCCESS - 2025-10-14 17:32:03 ===
File index: 016022
File number: 23/1757
Input file: /data/retarget/locomotion/raw/AMASS_SMPLXG/WEIZMANN/67/Fast_StraightLong(31)_stageii.npz
Output file: ../robot/ik_based/pkl/016022.pkl
Processing time: 2.42 seconds
Total file time: 2.54 seconds
Status: SUCCESS
==================================================

=== SUCCESS LOG - 2025-10-14 17:32:07 ===
Input file: /data/retarget/locomotion/raw/AMASS_SMPLXG/WEIZMANN/67/Fast_StraightLong(32)_stageii.npz
Output file: ../robot/ik_based/pkl/016023.pkl
Robot type: unitree_g1
Processing time: 3.04 seconds

STEP-BY-STEP TIMING:
  Step 1 - Load SMPLX:        1.14s
  Step 2 - Align FPS:         0.23s
  Step 3 - Init Retarget:     0.20s
  Step 4 - Init Visualization: 0.00s
  Step 5 - Process Frames:    1.41s (avg: 0.031s/frame)
  Step 6 - Convert Arrays:    0.00s
  Step 7 - Forward Kinematics: 0.02s
  Step 8 - Save Data:         0.00s
Status: SUCCESS
==================================================

=== FILE SUCCESS - 2025-10-14 17:32:07 ===
File index: 016023
File number: 24/1757
Input file: /data/retarget/locomotion/raw/AMASS_SMPLXG/WEIZMANN/67/Fast_StraightLong(32)_stageii.npz
Output file: ../robot/ik_based/pkl/016023.pkl
Processing time: 3.04 seconds
Total file time: 3.17 seconds
Status: SUCCESS
==================================================

=== SUCCESS LOG - 2025-10-14 17:32:09 ===
Input file: /data/retarget/locomotion/raw/AMASS_SMPLXG/WEIZMANN/67/Fast_StraightLong(33)_stageii.npz
Output file: ../robot/ik_based/pkl/016024.pkl
Robot type: unitree_g1
Processing time: 2.15 seconds

STEP-BY-STEP TIMING:
  Step 1 - Load SMPLX:        0.75s
  Step 2 - Align FPS:         0.18s
  Step 3 - Init Retarget:     0.18s
  Step 4 - Init Visualization: 0.00s
  Step 5 - Process Frames:    0.99s (avg: 0.029s/frame)
  Step 6 - Convert Arrays:    0.00s
  Step 7 - Forward Kinematics: 0.02s
  Step 8 - Save Data:         0.00s
Status: SUCCESS
==================================================

=== FILE SUCCESS - 2025-10-14 17:32:09 ===
File index: 016024
File number: 25/1757
Input file: /data/retarget/locomotion/raw/AMASS_SMPLXG/WEIZMANN/67/Fast_StraightLong(33)_stageii.npz
Output file: ../robot/ik_based/pkl/016024.pkl
Processing time: 2.15 seconds
Total file time: 2.23 seconds
Status: SUCCESS
==================================================

=== SUCCESS LOG - 2025-10-14 17:32:11 ===
Input file: /data/retarget/locomotion/raw/AMASS_SMPLXG/WEIZMANN/67/Fast_StraightLong(34)_stageii.npz
Output file: ../robot/ik_based/pkl/016025.pkl
Robot type: unitree_g1
Processing time: 2.60 seconds

STEP-BY-STEP TIMING:
  Step 1 - Load SMPLX:        0.79s
  Step 2 - Align FPS:         0.25s
  Step 3 - Init Retarget:     0.17s
  Step 4 - Init Visualization: 0.00s
  Step 5 - Process Frames:    1.36s (avg: 0.029s/frame)
  Step 6 - Convert Arrays:    0.00s
  Step 7 - Forward Kinematics: 0.02s
  Step 8 - Save Data:         0.00s
Status: SUCCESS
==================================================

=== FILE SUCCESS - 2025-10-14 17:32:12 ===
File index: 016025
File number: 26/1757
Input file: /data/retarget/locomotion/raw/AMASS_SMPLXG/WEIZMANN/67/Fast_StraightLong(34)_stageii.npz
Output file: ../robot/ik_based/pkl/016025.pkl
Processing time: 2.60 seconds
Total file time: 2.70 seconds
Status: SUCCESS
==================================================

=== SUCCESS LOG - 2025-10-14 17:32:14 ===
Input file: /data/retarget/locomotion/raw/AMASS_SMPLXG/WEIZMANN/67/Fast_StraightLong(35)_stageii.npz
Output file: ../robot/ik_based/pkl/016026.pkl
Robot type: unitree_g1
Processing time: 2.11 seconds

STEP-BY-STEP TIMING:
  Step 1 - Load SMPLX:        0.76s
  Step 2 - Align FPS:         0.16s
  Step 3 - Init Retarget:     0.19s
  Step 4 - Init Visualization: 0.00s
  Step 5 - Process Frames:    0.94s (avg: 0.032s/frame)
  Step 6 - Convert Arrays:    0.00s
  Step 7 - Forward Kinematics: 0.03s
  Step 8 - Save Data:         0.00s
Status: SUCCESS
==================================================

=== FILE SUCCESS - 2025-10-14 17:32:14 ===
File index: 016026
File number: 27/1757
Input file: /data/retarget/locomotion/raw/AMASS_SMPLXG/WEIZMANN/67/Fast_StraightLong(35)_stageii.npz
Output file: ../robot/ik_based/pkl/016026.pkl
Processing time: 2.11 seconds
Total file time: 2.20 seconds
Status: SUCCESS
==================================================

=== SUCCESS LOG - 2025-10-14 17:32:16 ===
Input file: /data/retarget/locomotion/raw/AMASS_SMPLXG/WEIZMANN/67/Fast_StraightLong(36)_stageii.npz
Output file: ../robot/ik_based/pkl/016027.pkl
Robot type: unitree_g1
Processing time: 2.32 seconds

STEP-BY-STEP TIMING:
  Step 1 - Load SMPLX:        0.76s
  Step 2 - Align FPS:         0.20s
  Step 3 - Init Retarget:     0.17s
  Step 4 - Init Visualization: 0.00s
  Step 5 - Process Frames:    1.14s (avg: 0.029s/frame)
  Step 6 - Convert Arrays:    0.00s
  Step 7 - Forward Kinematics: 0.02s
  Step 8 - Save Data:         0.00s
Status: SUCCESS
==================================================

=== FILE SUCCESS - 2025-10-14 17:32:16 ===
File index: 016027
File number: 28/1757
Input file: /data/retarget/locomotion/raw/AMASS_SMPLXG/WEIZMANN/67/Fast_StraightLong(36)_stageii.npz
Output file: ../robot/ik_based/pkl/016027.pkl
Processing time: 2.32 seconds
Total file time: 2.40 seconds
Status: SUCCESS
==================================================

=== SUCCESS LOG - 2025-10-14 17:32:19 ===
Input file: /data/retarget/locomotion/raw/AMASS_SMPLXG/WEIZMANN/67/Fast_StraightLong(4)_stageii.npz
Output file: ../robot/ik_based/pkl/016028.pkl
Robot type: unitree_g1
Processing time: 2.34 seconds

STEP-BY-STEP TIMING:
  Step 1 - Load SMPLX:        0.73s
  Step 2 - Align FPS:         0.21s
  Step 3 - Init Retarget:     0.17s
  Step 4 - Init Visualization: 0.00s
  Step 5 - Process Frames:    1.19s (avg: 0.029s/frame)
  Step 6 - Convert Arrays:    0.00s
  Step 7 - Forward Kinematics: 0.02s
  Step 8 - Save Data:         0.00s
Status: SUCCESS
==================================================

=== FILE SUCCESS - 2025-10-14 17:32:19 ===
File index: 016028
File number: 29/1757
Input file: /data/retarget/locomotion/raw/AMASS_SMPLXG/WEIZMANN/67/Fast_StraightLong(4)_stageii.npz
Output file: ../robot/ik_based/pkl/016028.pkl
Processing time: 2.34 seconds
Total file time: 2.44 seconds
Status: SUCCESS
==================================================

=== SUCCESS LOG - 2025-10-14 17:32:21 ===
Input file: /data/retarget/locomotion/raw/AMASS_SMPLXG/WEIZMANN/67/Fast_StraightLong(5)_stageii.npz
Output file: ../robot/ik_based/pkl/016029.pkl
Robot type: unitree_g1
Processing time: 2.67 seconds

STEP-BY-STEP TIMING:
  Step 1 - Load SMPLX:        0.78s
  Step 2 - Align FPS:         0.24s
  Step 3 - Init Retarget:     0.28s
  Step 4 - Init Visualization: 0.00s
  Step 5 - Process Frames:    1.33s (avg: 0.029s/frame)
  Step 6 - Convert Arrays:    0.00s
  Step 7 - Forward Kinematics: 0.02s
  Step 8 - Save Data:         0.00s
Status: SUCCESS
==================================================

=== FILE SUCCESS - 2025-10-14 17:32:21 ===
File index: 016029
File number: 30/1757
Input file: /data/retarget/locomotion/raw/AMASS_SMPLXG/WEIZMANN/67/Fast_StraightLong(5)_stageii.npz
Output file: ../robot/ik_based/pkl/016029.pkl
Processing time: 2.67 seconds
Total file time: 2.77 seconds
Status: SUCCESS
==================================================

=== SUCCESS LOG - 2025-10-14 17:32:24 ===
Input file: /data/retarget/locomotion/raw/AMASS_SMPLXG/WEIZMANN/67/Fast_StraightLong(6)_stageii.npz
Output file: ../robot/ik_based/pkl/016030.pkl
Robot type: unitree_g1
Processing time: 2.46 seconds

STEP-BY-STEP TIMING:
  Step 1 - Load SMPLX:        0.80s
  Step 2 - Align FPS:         0.22s
  Step 3 - Init Retarget:     0.22s
  Step 4 - Init Visualization: 0.00s
  Step 5 - Process Frames:    1.18s (avg: 0.028s/frame)
  Step 6 - Convert Arrays:    0.00s
  Step 7 - Forward Kinematics: 0.02s
  Step 8 - Save Data:         0.00s
Status: SUCCESS
==================================================

=== FILE SUCCESS - 2025-10-14 17:32:24 ===
File index: 016030
File number: 31/1757
Input file: /data/retarget/locomotion/raw/AMASS_SMPLXG/WEIZMANN/67/Fast_StraightLong(6)_stageii.npz
Output file: ../robot/ik_based/pkl/016030.pkl
Processing time: 2.46 seconds
Total file time: 2.57 seconds
Status: SUCCESS
==================================================

=== SUCCESS LOG - 2025-10-14 17:32:27 ===
Input file: /data/retarget/locomotion/raw/AMASS_SMPLXG/WEIZMANN/67/Fast_StraightLong(7)_stageii.npz
Output file: ../robot/ik_based/pkl/016031.pkl
Robot type: unitree_g1
Processing time: 2.74 seconds

STEP-BY-STEP TIMING:
  Step 1 - Load SMPLX:        0.78s
  Step 2 - Align FPS:         0.29s
  Step 3 - Init Retarget:     0.31s
  Step 4 - Init Visualization: 0.00s
  Step 5 - Process Frames:    1.31s (avg: 0.029s/frame)
  Step 6 - Convert Arrays:    0.00s
  Step 7 - Forward Kinematics: 0.02s
  Step 8 - Save Data:         0.00s
Status: SUCCESS
==================================================

=== FILE SUCCESS - 2025-10-14 17:32:27 ===
File index: 016031
File number: 32/1757
Input file: /data/retarget/locomotion/raw/AMASS_SMPLXG/WEIZMANN/67/Fast_StraightLong(7)_stageii.npz
Output file: ../robot/ik_based/pkl/016031.pkl
Processing time: 2.74 seconds
Total file time: 2.82 seconds
Status: SUCCESS
==================================================

=== SUCCESS LOG - 2025-10-14 17:32:29 ===
Input file: /data/retarget/locomotion/raw/AMASS_SMPLXG/WEIZMANN/67/Fast_StraightLong(8)_stageii.npz
Output file: ../robot/ik_based/pkl/016032.pkl
Robot type: unitree_g1
Processing time: 2.50 seconds

STEP-BY-STEP TIMING:
  Step 1 - Load SMPLX:        0.78s
  Step 2 - Align FPS:         0.22s
  Step 3 - Init Retarget:     0.22s
  Step 4 - Init Visualization: 0.00s
  Step 5 - Process Frames:    1.24s (avg: 0.029s/frame)
  Step 6 - Convert Arrays:    0.00s
  Step 7 - Forward Kinematics: 0.02s
  Step 8 - Save Data:         0.00s
Status: SUCCESS
==================================================

=== FILE SUCCESS - 2025-10-14 17:32:29 ===
File index: 016032
File number: 33/1757
Input file: /data/retarget/locomotion/raw/AMASS_SMPLXG/WEIZMANN/67/Fast_StraightLong(8)_stageii.npz
Output file: ../robot/ik_based/pkl/016032.pkl
Processing time: 2.50 seconds
Total file time: 2.59 seconds
Status: SUCCESS
==================================================

=== SUCCESS LOG - 2025-10-14 17:32:32 ===
Input file: /data/retarget/locomotion/raw/AMASS_SMPLXG/WEIZMANN/67/Fast_StraightLong(9)_stageii.npz
Output file: ../robot/ik_based/pkl/016033.pkl
Robot type: unitree_g1
Processing time: 2.50 seconds

STEP-BY-STEP TIMING:
  Step 1 - Load SMPLX:        0.75s
  Step 2 - Align FPS:         0.23s
  Step 3 - Init Retarget:     0.18s
  Step 4 - Init Visualization: 0.00s
  Step 5 - Process Frames:    1.29s (avg: 0.029s/frame)
  Step 6 - Convert Arrays:    0.00s
  Step 7 - Forward Kinematics: 0.02s
  Step 8 - Save Data:         0.00s
Status: SUCCESS
==================================================

=== FILE SUCCESS - 2025-10-14 17:32:32 ===
File index: 016033
File number: 34/1757
Input file: /data/retarget/locomotion/raw/AMASS_SMPLXG/WEIZMANN/67/Fast_StraightLong(9)_stageii.npz
Output file: ../robot/ik_based/pkl/016033.pkl
Processing time: 2.50 seconds
Total file time: 2.61 seconds
Status: SUCCESS
==================================================

=== SUCCESS LOG - 2025-10-14 17:33:04 ===
Input file: /data/retarget/locomotion/raw/AMASS_SMPLXG/WEIZMANN/67/Fast_StraightShort(1)_stageii.npz
Output file: ../robot/ik_based/pkl/016034.pkl
Robot type: unitree_g1
Processing time: 31.99 seconds

STEP-BY-STEP TIMING:
  Step 1 - Load SMPLX:        1.60s
  Step 2 - Align FPS:         4.12s
  Step 3 - Init Retarget:     0.30s
  Step 4 - Init Visualization: 0.00s
  Step 5 - Process Frames:    25.89s (avg: 0.029s/frame)
  Step 6 - Convert Arrays:    0.00s
  Step 7 - Forward Kinematics: 0.04s
  Step 8 - Save Data:         0.01s
Status: SUCCESS
==================================================

=== FILE SUCCESS - 2025-10-14 17:33:05 ===
File index: 016034
File number: 35/1757
Input file: /data/retarget/locomotion/raw/AMASS_SMPLXG/WEIZMANN/67/Fast_StraightShort(1)_stageii.npz
Output file: ../robot/ik_based/pkl/016034.pkl
Processing time: 31.99 seconds
Total file time: 32.80 seconds
Status: SUCCESS
==================================================

=== SUCCESS LOG - 2025-10-14 17:33:37 ===
Input file: /data/retarget/locomotion/raw/AMASS_SMPLXG/WEIZMANN/67/Fast_StraightShort(2)_stageii.npz
Output file: ../robot/ik_based/pkl/016035.pkl
Robot type: unitree_g1
Processing time: 32.14 seconds

STEP-BY-STEP TIMING:
  Step 1 - Load SMPLX:        1.80s
  Step 2 - Align FPS:         4.00s
  Step 3 - Init Retarget:     0.29s
  Step 4 - Init Visualization: 0.00s
  Step 5 - Process Frames:    26.00s (avg: 0.031s/frame)
  Step 6 - Convert Arrays:    0.00s
  Step 7 - Forward Kinematics: 0.03s
  Step 8 - Save Data:         0.00s
Status: SUCCESS
==================================================

=== FILE SUCCESS - 2025-10-14 17:33:37 ===
File index: 016035
File number: 36/1757
Input file: /data/retarget/locomotion/raw/AMASS_SMPLXG/WEIZMANN/67/Fast_StraightShort(2)_stageii.npz
Output file: ../robot/ik_based/pkl/016035.pkl
Processing time: 32.14 seconds
Total file time: 32.64 seconds
Status: SUCCESS
==================================================

=== SUCCESS LOG - 2025-10-14 17:33:41 ===
Input file: /data/retarget/locomotion/raw/AMASS_SMPLXG/WEIZMANN/67/Mixed_FastSlow(1)_stageii.npz
Output file: ../robot/ik_based/pkl/016036.pkl
Robot type: unitree_g1
Processing time: 3.08 seconds

STEP-BY-STEP TIMING:
  Step 1 - Load SMPLX:        0.79s
  Step 2 - Align FPS:         0.40s
  Step 3 - Init Retarget:     0.23s
  Step 4 - Init Visualization: 0.00s
  Step 5 - Process Frames:    1.61s (avg: 0.027s/frame)
  Step 6 - Convert Arrays:    0.00s
  Step 7 - Forward Kinematics: 0.02s
  Step 8 - Save Data:         0.00s
Status: SUCCESS
==================================================

=== FILE SUCCESS - 2025-10-14 17:33:41 ===
File index: 016036
File number: 37/1757
Input file: /data/retarget/locomotion/raw/AMASS_SMPLXG/WEIZMANN/67/Mixed_FastSlow(1)_stageii.npz
Output file: ../robot/ik_based/pkl/016036.pkl
Processing time: 3.08 seconds
Total file time: 3.18 seconds
Status: SUCCESS
==================================================

=== SUCCESS LOG - 2025-10-14 17:33:44 ===
Input file: /data/retarget/locomotion/raw/AMASS_SMPLXG/WEIZMANN/67/Mixed_FastSlow(10)_stageii.npz
Output file: ../robot/ik_based/pkl/016037.pkl
Robot type: unitree_g1
Processing time: 2.99 seconds

STEP-BY-STEP TIMING:
  Step 1 - Load SMPLX:        0.76s
  Step 2 - Align FPS:         0.36s
  Step 3 - Init Retarget:     0.20s
  Step 4 - Init Visualization: 0.00s
  Step 5 - Process Frames:    1.63s (avg: 0.030s/frame)
  Step 6 - Convert Arrays:    0.00s
  Step 7 - Forward Kinematics: 0.02s
  Step 8 - Save Data:         0.00s
Status: SUCCESS
==================================================

=== FILE SUCCESS - 2025-10-14 17:33:44 ===
File index: 016037
File number: 38/1757
Input file: /data/retarget/locomotion/raw/AMASS_SMPLXG/WEIZMANN/67/Mixed_FastSlow(10)_stageii.npz
Output file: ../robot/ik_based/pkl/016037.pkl
Processing time: 2.99 seconds
Total file time: 3.09 seconds
Status: SUCCESS
==================================================

=== SUCCESS LOG - 2025-10-14 17:33:47 ===
Input file: /data/retarget/locomotion/raw/AMASS_SMPLXG/WEIZMANN/67/Mixed_FastSlow(11)_stageii.npz
Output file: ../robot/ik_based/pkl/016038.pkl
Robot type: unitree_g1
Processing time: 2.89 seconds

STEP-BY-STEP TIMING:
  Step 1 - Load SMPLX:        0.77s
  Step 2 - Align FPS:         0.28s
  Step 3 - Init Retarget:     0.19s
  Step 4 - Init Visualization: 0.00s
  Step 5 - Process Frames:    1.60s (avg: 0.030s/frame)
  Step 6 - Convert Arrays:    0.00s
  Step 7 - Forward Kinematics: 0.02s
  Step 8 - Save Data:         0.00s
Status: SUCCESS
==================================================

=== FILE SUCCESS - 2025-10-14 17:33:47 ===
File index: 016038
File number: 39/1757
Input file: /data/retarget/locomotion/raw/AMASS_SMPLXG/WEIZMANN/67/Mixed_FastSlow(11)_stageii.npz
Output file: ../robot/ik_based/pkl/016038.pkl
Processing time: 2.89 seconds
Total file time: 2.99 seconds
Status: SUCCESS
==================================================

=== SUCCESS LOG - 2025-10-14 17:33:50 ===
Input file: /data/retarget/locomotion/raw/AMASS_SMPLXG/WEIZMANN/67/Mixed_FastSlow(12)_stageii.npz
Output file: ../robot/ik_based/pkl/016039.pkl
Robot type: unitree_g1
Processing time: 3.09 seconds

STEP-BY-STEP TIMING:
  Step 1 - Load SMPLX:        0.75s
  Step 2 - Align FPS:         0.28s
  Step 3 - Init Retarget:     0.19s
  Step 4 - Init Visualization: 0.00s
  Step 5 - Process Frames:    1.81s (avg: 0.033s/frame)
  Step 6 - Convert Arrays:    0.00s
  Step 7 - Forward Kinematics: 0.03s
  Step 8 - Save Data:         0.00s
Status: SUCCESS
==================================================

=== FILE SUCCESS - 2025-10-14 17:33:50 ===
File index: 016039
File number: 40/1757
Input file: /data/retarget/locomotion/raw/AMASS_SMPLXG/WEIZMANN/67/Mixed_FastSlow(12)_stageii.npz
Output file: ../robot/ik_based/pkl/016039.pkl
Processing time: 3.09 seconds
Total file time: 3.20 seconds
Status: SUCCESS
==================================================

=== SUCCESS LOG - 2025-10-14 17:33:53 ===
Input file: /data/retarget/locomotion/raw/AMASS_SMPLXG/WEIZMANN/67/Mixed_FastSlow(13)_stageii.npz
Output file: ../robot/ik_based/pkl/016040.pkl
Robot type: unitree_g1
Processing time: 2.86 seconds

STEP-BY-STEP TIMING:
  Step 1 - Load SMPLX:        0.78s
  Step 2 - Align FPS:         0.26s
  Step 3 - Init Retarget:     0.18s
  Step 4 - Init Visualization: 0.00s
  Step 5 - Process Frames:    1.57s (avg: 0.031s/frame)
  Step 6 - Convert Arrays:    0.00s
  Step 7 - Forward Kinematics: 0.03s
  Step 8 - Save Data:         0.00s
Status: SUCCESS
==================================================

=== FILE SUCCESS - 2025-10-14 17:33:53 ===
File index: 016040
File number: 41/1757
Input file: /data/retarget/locomotion/raw/AMASS_SMPLXG/WEIZMANN/67/Mixed_FastSlow(13)_stageii.npz
Output file: ../robot/ik_based/pkl/016040.pkl
Processing time: 2.86 seconds
Total file time: 2.98 seconds
Status: SUCCESS
==================================================

=== SUCCESS LOG - 2025-10-14 17:33:56 ===
Input file: /data/retarget/locomotion/raw/AMASS_SMPLXG/WEIZMANN/67/Mixed_FastSlow(14)_stageii.npz
Output file: ../robot/ik_based/pkl/016041.pkl
Robot type: unitree_g1
Processing time: 2.79 seconds

STEP-BY-STEP TIMING:
  Step 1 - Load SMPLX:        0.79s
  Step 2 - Align FPS:         0.25s
  Step 3 - Init Retarget:     0.18s
  Step 4 - Init Visualization: 0.00s
  Step 5 - Process Frames:    1.52s (avg: 0.031s/frame)
  Step 6 - Convert Arrays:    0.00s
  Step 7 - Forward Kinematics: 0.02s
  Step 8 - Save Data:         0.00s
Status: SUCCESS
==================================================

=== FILE SUCCESS - 2025-10-14 17:33:56 ===
File index: 016041
File number: 42/1757
Input file: /data/retarget/locomotion/raw/AMASS_SMPLXG/WEIZMANN/67/Mixed_FastSlow(14)_stageii.npz
Output file: ../robot/ik_based/pkl/016041.pkl
Processing time: 2.79 seconds
Total file time: 2.88 seconds
Status: SUCCESS
==================================================

=== SUCCESS LOG - 2025-10-14 17:33:59 ===
Input file: /data/retarget/locomotion/raw/AMASS_SMPLXG/WEIZMANN/67/Mixed_FastSlow(15)_stageii.npz
Output file: ../robot/ik_based/pkl/016042.pkl
Robot type: unitree_g1
Processing time: 2.77 seconds

STEP-BY-STEP TIMING:
  Step 1 - Load SMPLX:        0.76s
  Step 2 - Align FPS:         0.27s
  Step 3 - Init Retarget:     0.21s
  Step 4 - Init Visualization: 0.00s
  Step 5 - Process Frames:    1.48s (avg: 0.031s/frame)
  Step 6 - Convert Arrays:    0.00s
  Step 7 - Forward Kinematics: 0.02s
  Step 8 - Save Data:         0.00s
Status: SUCCESS
==================================================

=== FILE SUCCESS - 2025-10-14 17:33:59 ===
File index: 016042
File number: 43/1757
Input file: /data/retarget/locomotion/raw/AMASS_SMPLXG/WEIZMANN/67/Mixed_FastSlow(15)_stageii.npz
Output file: ../robot/ik_based/pkl/016042.pkl
Processing time: 2.77 seconds
Total file time: 2.86 seconds
Status: SUCCESS
==================================================

=== SUCCESS LOG - 2025-10-14 17:34:01 ===
Input file: /data/retarget/locomotion/raw/AMASS_SMPLXG/WEIZMANN/67/Mixed_FastSlow(16)_stageii.npz
Output file: ../robot/ik_based/pkl/016043.pkl
Robot type: unitree_g1
Processing time: 2.60 seconds

STEP-BY-STEP TIMING:
  Step 1 - Load SMPLX:        0.78s
  Step 2 - Align FPS:         0.25s
  Step 3 - Init Retarget:     0.18s
  Step 4 - Init Visualization: 0.00s
  Step 5 - Process Frames:    1.35s (avg: 0.028s/frame)
  Step 6 - Convert Arrays:    0.00s
  Step 7 - Forward Kinematics: 0.02s
  Step 8 - Save Data:         0.00s
Status: SUCCESS
==================================================

=== FILE SUCCESS - 2025-10-14 17:34:01 ===
File index: 016043
File number: 44/1757
Input file: /data/retarget/locomotion/raw/AMASS_SMPLXG/WEIZMANN/67/Mixed_FastSlow(16)_stageii.npz
Output file: ../robot/ik_based/pkl/016043.pkl
Processing time: 2.60 seconds
Total file time: 2.68 seconds
Status: SUCCESS
==================================================

=== SUCCESS LOG - 2025-10-14 17:34:04 ===
Input file: /data/retarget/locomotion/raw/AMASS_SMPLXG/WEIZMANN/67/Mixed_FastSlow(17)_stageii.npz
Output file: ../robot/ik_based/pkl/016044.pkl
Robot type: unitree_g1
Processing time: 2.83 seconds

STEP-BY-STEP TIMING:
  Step 1 - Load SMPLX:        0.76s
  Step 2 - Align FPS:         0.26s
  Step 3 - Init Retarget:     0.23s
  Step 4 - Init Visualization: 0.00s
  Step 5 - Process Frames:    1.53s (avg: 0.031s/frame)
  Step 6 - Convert Arrays:    0.00s
  Step 7 - Forward Kinematics: 0.03s
  Step 8 - Save Data:         0.00s
Status: SUCCESS
==================================================

=== FILE SUCCESS - 2025-10-14 17:34:04 ===
File index: 016044
File number: 45/1757
Input file: /data/retarget/locomotion/raw/AMASS_SMPLXG/WEIZMANN/67/Mixed_FastSlow(17)_stageii.npz
Output file: ../robot/ik_based/pkl/016044.pkl
Processing time: 2.83 seconds
Total file time: 2.93 seconds
Status: SUCCESS
==================================================

=== SUCCESS LOG - 2025-10-14 17:34:07 ===
Input file: /data/retarget/locomotion/raw/AMASS_SMPLXG/WEIZMANN/67/Mixed_FastSlow(18)_stageii.npz
Output file: ../robot/ik_based/pkl/016045.pkl
Robot type: unitree_g1
Processing time: 2.67 seconds

STEP-BY-STEP TIMING:
  Step 1 - Load SMPLX:        0.76s
  Step 2 - Align FPS:         0.27s
  Step 3 - Init Retarget:     0.19s
  Step 4 - Init Visualization: 0.00s
  Step 5 - Process Frames:    1.41s (avg: 0.027s/frame)
  Step 6 - Convert Arrays:    0.00s
  Step 7 - Forward Kinematics: 0.02s
  Step 8 - Save Data:         0.00s
Status: SUCCESS
==================================================

=== FILE SUCCESS - 2025-10-14 17:34:07 ===
File index: 016045
File number: 46/1757
Input file: /data/retarget/locomotion/raw/AMASS_SMPLXG/WEIZMANN/67/Mixed_FastSlow(18)_stageii.npz
Output file: ../robot/ik_based/pkl/016045.pkl
Processing time: 2.67 seconds
Total file time: 2.76 seconds
Status: SUCCESS
==================================================

=== SUCCESS LOG - 2025-10-14 17:34:10 ===
Input file: /data/retarget/locomotion/raw/AMASS_SMPLXG/WEIZMANN/67/Mixed_FastSlow(19)_stageii.npz
Output file: ../robot/ik_based/pkl/016046.pkl
Robot type: unitree_g1
Processing time: 2.67 seconds

STEP-BY-STEP TIMING:
  Step 1 - Load SMPLX:        0.75s
  Step 2 - Align FPS:         0.26s
  Step 3 - Init Retarget:     0.19s
  Step 4 - Init Visualization: 0.00s
  Step 5 - Process Frames:    1.42s (avg: 0.028s/frame)
  Step 6 - Convert Arrays:    0.00s
  Step 7 - Forward Kinematics: 0.03s
  Step 8 - Save Data:         0.00s
Status: SUCCESS
==================================================

=== FILE SUCCESS - 2025-10-14 17:34:10 ===
File index: 016046
File number: 47/1757
Input file: /data/retarget/locomotion/raw/AMASS_SMPLXG/WEIZMANN/67/Mixed_FastSlow(19)_stageii.npz
Output file: ../robot/ik_based/pkl/016046.pkl
Processing time: 2.67 seconds
Total file time: 2.77 seconds
Status: SUCCESS
==================================================

=== SUCCESS LOG - 2025-10-14 17:34:13 ===
Input file: /data/retarget/locomotion/raw/AMASS_SMPLXG/WEIZMANN/67/Mixed_FastSlow(2)_stageii.npz
Output file: ../robot/ik_based/pkl/016047.pkl
Robot type: unitree_g1
Processing time: 3.05 seconds

STEP-BY-STEP TIMING:
  Step 1 - Load SMPLX:        0.79s
  Step 2 - Align FPS:         0.33s
  Step 3 - Init Retarget:     0.26s
  Step 4 - Init Visualization: 0.00s
  Step 5 - Process Frames:    1.62s (avg: 0.027s/frame)
  Step 6 - Convert Arrays:    0.00s
  Step 7 - Forward Kinematics: 0.02s
  Step 8 - Save Data:         0.00s
Status: SUCCESS
==================================================

=== FILE SUCCESS - 2025-10-14 17:34:13 ===
File index: 016047
File number: 48/1757
Input file: /data/retarget/locomotion/raw/AMASS_SMPLXG/WEIZMANN/67/Mixed_FastSlow(2)_stageii.npz
Output file: ../robot/ik_based/pkl/016047.pkl
Processing time: 3.05 seconds
Total file time: 3.16 seconds
Status: SUCCESS
==================================================

=== SUCCESS LOG - 2025-10-14 17:34:16 ===
Input file: /data/retarget/locomotion/raw/AMASS_SMPLXG/WEIZMANN/67/Mixed_FastSlow(20)_stageii.npz
Output file: ../robot/ik_based/pkl/016048.pkl
Robot type: unitree_g1
Processing time: 3.15 seconds

STEP-BY-STEP TIMING:
  Step 1 - Load SMPLX:        1.04s
  Step 2 - Align FPS:         0.27s
  Step 3 - Init Retarget:     0.21s
  Step 4 - Init Visualization: 0.00s
  Step 5 - Process Frames:    1.56s (avg: 0.029s/frame)
  Step 6 - Convert Arrays:    0.00s
  Step 7 - Forward Kinematics: 0.03s
  Step 8 - Save Data:         0.00s
Status: SUCCESS
==================================================

=== FILE SUCCESS - 2025-10-14 17:34:16 ===
File index: 016048
File number: 49/1757
Input file: /data/retarget/locomotion/raw/AMASS_SMPLXG/WEIZMANN/67/Mixed_FastSlow(20)_stageii.npz
Output file: ../robot/ik_based/pkl/016048.pkl
Processing time: 3.15 seconds
Total file time: 3.32 seconds
Status: SUCCESS
==================================================

=== SUCCESS LOG - 2025-10-14 17:34:19 ===
Input file: /data/retarget/locomotion/raw/AMASS_SMPLXG/WEIZMANN/67/Mixed_FastSlow(21)_stageii.npz
Output file: ../robot/ik_based/pkl/016049.pkl
Robot type: unitree_g1
Processing time: 3.03 seconds

STEP-BY-STEP TIMING:
  Step 1 - Load SMPLX:        0.84s
  Step 2 - Align FPS:         0.28s
  Step 3 - Init Retarget:     0.22s
  Step 4 - Init Visualization: 0.00s
  Step 5 - Process Frames:    1.64s (avg: 0.029s/frame)
  Step 6 - Convert Arrays:    0.00s
  Step 7 - Forward Kinematics: 0.02s
  Step 8 - Save Data:         0.00s
Status: SUCCESS
==================================================

=== FILE SUCCESS - 2025-10-14 17:34:19 ===
File index: 016049
File number: 50/1757
Input file: /data/retarget/locomotion/raw/AMASS_SMPLXG/WEIZMANN/67/Mixed_FastSlow(21)_stageii.npz
Output file: ../robot/ik_based/pkl/016049.pkl
Processing time: 3.03 seconds
Total file time: 3.13 seconds
Status: SUCCESS
==================================================

=== SUCCESS LOG - 2025-10-14 17:34:22 ===
Input file: /data/retarget/locomotion/raw/AMASS_SMPLXG/WEIZMANN/67/Mixed_FastSlow(22)_stageii.npz
Output file: ../robot/ik_based/pkl/016050.pkl
Robot type: unitree_g1
Processing time: 2.50 seconds

STEP-BY-STEP TIMING:
  Step 1 - Load SMPLX:        0.77s
  Step 2 - Align FPS:         0.24s
  Step 3 - Init Retarget:     0.17s
  Step 4 - Init Visualization: 0.00s
  Step 5 - Process Frames:    1.27s (avg: 0.028s/frame)
  Step 6 - Convert Arrays:    0.00s
  Step 7 - Forward Kinematics: 0.02s
  Step 8 - Save Data:         0.00s
Status: SUCCESS
==================================================

=== FILE SUCCESS - 2025-10-14 17:34:22 ===
File index: 016050
File number: 51/1757
Input file: /data/retarget/locomotion/raw/AMASS_SMPLXG/WEIZMANN/67/Mixed_FastSlow(22)_stageii.npz
Output file: ../robot/ik_based/pkl/016050.pkl
Processing time: 2.50 seconds
Total file time: 2.59 seconds
Status: SUCCESS
==================================================

=== SUCCESS LOG - 2025-10-14 17:34:25 ===
Input file: /data/retarget/locomotion/raw/AMASS_SMPLXG/WEIZMANN/67/Mixed_FastSlow(23)_stageii.npz
Output file: ../robot/ik_based/pkl/016051.pkl
Robot type: unitree_g1
Processing time: 3.46 seconds

STEP-BY-STEP TIMING:
  Step 1 - Load SMPLX:        1.17s
  Step 2 - Align FPS:         0.26s
  Step 3 - Init Retarget:     0.20s
  Step 4 - Init Visualization: 0.00s
  Step 5 - Process Frames:    1.79s (avg: 0.034s/frame)
  Step 6 - Convert Arrays:    0.00s
  Step 7 - Forward Kinematics: 0.02s
  Step 8 - Save Data:         0.00s
Status: SUCCESS
==================================================

=== FILE SUCCESS - 2025-10-14 17:34:26 ===
File index: 016051
File number: 52/1757
Input file: /data/retarget/locomotion/raw/AMASS_SMPLXG/WEIZMANN/67/Mixed_FastSlow(23)_stageii.npz
Output file: ../robot/ik_based/pkl/016051.pkl
Processing time: 3.46 seconds
Total file time: 3.56 seconds
Status: SUCCESS
==================================================

=== SUCCESS LOG - 2025-10-14 17:34:29 ===
Input file: /data/retarget/locomotion/raw/AMASS_SMPLXG/WEIZMANN/67/Mixed_FastSlow(24)_stageii.npz
Output file: ../robot/ik_based/pkl/016052.pkl
Robot type: unitree_g1
Processing time: 3.00 seconds

STEP-BY-STEP TIMING:
  Step 1 - Load SMPLX:        0.81s
  Step 2 - Align FPS:         0.27s
  Step 3 - Init Retarget:     0.20s
  Step 4 - Init Visualization: 0.00s
  Step 5 - Process Frames:    1.68s (avg: 0.032s/frame)
  Step 6 - Convert Arrays:    0.00s
  Step 7 - Forward Kinematics: 0.02s
  Step 8 - Save Data:         0.00s
Status: SUCCESS
==================================================

=== FILE SUCCESS - 2025-10-14 17:34:29 ===
File index: 016052
File number: 53/1757
Input file: /data/retarget/locomotion/raw/AMASS_SMPLXG/WEIZMANN/67/Mixed_FastSlow(24)_stageii.npz
Output file: ../robot/ik_based/pkl/016052.pkl
Processing time: 3.00 seconds
Total file time: 3.11 seconds
Status: SUCCESS
==================================================

=== SUCCESS LOG - 2025-10-14 17:34:32 ===
Input file: /data/retarget/locomotion/raw/AMASS_SMPLXG/WEIZMANN/67/Mixed_FastSlow(25)_stageii.npz
Output file: ../robot/ik_based/pkl/016053.pkl
Robot type: unitree_g1
Processing time: 2.89 seconds

STEP-BY-STEP TIMING:
  Step 1 - Load SMPLX:        0.79s
  Step 2 - Align FPS:         0.27s
  Step 3 - Init Retarget:     0.25s
  Step 4 - Init Visualization: 0.00s
  Step 5 - Process Frames:    1.52s (avg: 0.029s/frame)
  Step 6 - Convert Arrays:    0.00s
  Step 7 - Forward Kinematics: 0.03s
  Step 8 - Save Data:         0.00s
Status: SUCCESS
==================================================

=== FILE SUCCESS - 2025-10-14 17:34:32 ===
File index: 016053
File number: 54/1757
Input file: /data/retarget/locomotion/raw/AMASS_SMPLXG/WEIZMANN/67/Mixed_FastSlow(25)_stageii.npz
Output file: ../robot/ik_based/pkl/016053.pkl
Processing time: 2.89 seconds
Total file time: 3.00 seconds
Status: SUCCESS
==================================================

=== SUCCESS LOG - 2025-10-14 17:34:34 ===
Input file: /data/retarget/locomotion/raw/AMASS_SMPLXG/WEIZMANN/67/Mixed_FastSlow(26)_stageii.npz
Output file: ../robot/ik_based/pkl/016054.pkl
Robot type: unitree_g1
Processing time: 2.80 seconds

STEP-BY-STEP TIMING:
  Step 1 - Load SMPLX:        0.78s
  Step 2 - Align FPS:         0.30s
  Step 3 - Init Retarget:     0.21s
  Step 4 - Init Visualization: 0.00s
  Step 5 - Process Frames:    1.47s (avg: 0.028s/frame)
  Step 6 - Convert Arrays:    0.00s
  Step 7 - Forward Kinematics: 0.02s
  Step 8 - Save Data:         0.00s
Status: SUCCESS
==================================================

=== FILE SUCCESS - 2025-10-14 17:34:35 ===
File index: 016054
File number: 55/1757
Input file: /data/retarget/locomotion/raw/AMASS_SMPLXG/WEIZMANN/67/Mixed_FastSlow(26)_stageii.npz
Output file: ../robot/ik_based/pkl/016054.pkl
Processing time: 2.80 seconds
Total file time: 2.88 seconds
Status: SUCCESS
==================================================

=== SUCCESS LOG - 2025-10-14 17:34:38 ===
Input file: /data/retarget/locomotion/raw/AMASS_SMPLXG/WEIZMANN/67/Mixed_FastSlow(27)_stageii.npz
Output file: ../robot/ik_based/pkl/016055.pkl
Robot type: unitree_g1
Processing time: 3.04 seconds

STEP-BY-STEP TIMING:
  Step 1 - Load SMPLX:        0.77s
  Step 2 - Align FPS:         0.28s
  Step 3 - Init Retarget:     0.19s
  Step 4 - Init Visualization: 0.00s
  Step 5 - Process Frames:    1.75s (avg: 0.032s/frame)
  Step 6 - Convert Arrays:    0.00s
  Step 7 - Forward Kinematics: 0.02s
  Step 8 - Save Data:         0.00s
Status: SUCCESS
==================================================

=== FILE SUCCESS - 2025-10-14 17:34:38 ===
File index: 016055
File number: 56/1757
Input file: /data/retarget/locomotion/raw/AMASS_SMPLXG/WEIZMANN/67/Mixed_FastSlow(27)_stageii.npz
Output file: ../robot/ik_based/pkl/016055.pkl
Processing time: 3.04 seconds
Total file time: 3.13 seconds
Status: SUCCESS
==================================================

=== SUCCESS LOG - 2025-10-14 17:34:40 ===
Input file: /data/retarget/locomotion/raw/AMASS_SMPLXG/WEIZMANN/67/Mixed_FastSlow(28)_stageii.npz
Output file: ../robot/ik_based/pkl/016056.pkl
Robot type: unitree_g1
Processing time: 2.66 seconds

STEP-BY-STEP TIMING:
  Step 1 - Load SMPLX:        0.75s
  Step 2 - Align FPS:         0.26s
  Step 3 - Init Retarget:     0.17s
  Step 4 - Init Visualization: 0.00s
  Step 5 - Process Frames:    1.43s (avg: 0.028s/frame)
  Step 6 - Convert Arrays:    0.00s
  Step 7 - Forward Kinematics: 0.02s
  Step 8 - Save Data:         0.00s
Status: SUCCESS
==================================================

=== FILE SUCCESS - 2025-10-14 17:34:40 ===
File index: 016056
File number: 57/1757
Input file: /data/retarget/locomotion/raw/AMASS_SMPLXG/WEIZMANN/67/Mixed_FastSlow(28)_stageii.npz
Output file: ../robot/ik_based/pkl/016056.pkl
Processing time: 2.66 seconds
Total file time: 2.74 seconds
Status: SUCCESS
==================================================

=== SUCCESS LOG - 2025-10-14 17:34:43 ===
Input file: /data/retarget/locomotion/raw/AMASS_SMPLXG/WEIZMANN/67/Mixed_FastSlow(29)_stageii.npz
Output file: ../robot/ik_based/pkl/016057.pkl
Robot type: unitree_g1
Processing time: 2.71 seconds

STEP-BY-STEP TIMING:
  Step 1 - Load SMPLX:        0.74s
  Step 2 - Align FPS:         0.27s
  Step 3 - Init Retarget:     0.17s
  Step 4 - Init Visualization: 0.00s
  Step 5 - Process Frames:    1.48s (avg: 0.028s/frame)
  Step 6 - Convert Arrays:    0.00s
  Step 7 - Forward Kinematics: 0.02s
  Step 8 - Save Data:         0.00s
Status: SUCCESS
==================================================

=== FILE SUCCESS - 2025-10-14 17:34:43 ===
File index: 016057
File number: 58/1757
Input file: /data/retarget/locomotion/raw/AMASS_SMPLXG/WEIZMANN/67/Mixed_FastSlow(29)_stageii.npz
Output file: ../robot/ik_based/pkl/016057.pkl
Processing time: 2.71 seconds
Total file time: 2.80 seconds
Status: SUCCESS
==================================================

=== SUCCESS LOG - 2025-10-14 17:34:46 ===
Input file: /data/retarget/locomotion/raw/AMASS_SMPLXG/WEIZMANN/67/Mixed_FastSlow(3)_stageii.npz
Output file: ../robot/ik_based/pkl/016058.pkl
Robot type: unitree_g1
Processing time: 2.99 seconds

STEP-BY-STEP TIMING:
  Step 1 - Load SMPLX:        0.77s
  Step 2 - Align FPS:         0.33s
  Step 3 - Init Retarget:     0.18s
  Step 4 - Init Visualization: 0.00s
  Step 5 - Process Frames:    1.67s (avg: 0.026s/frame)
  Step 6 - Convert Arrays:    0.00s
  Step 7 - Forward Kinematics: 0.02s
  Step 8 - Save Data:         0.00s
Status: SUCCESS
==================================================

=== FILE SUCCESS - 2025-10-14 17:34:46 ===
File index: 016058
File number: 59/1757
Input file: /data/retarget/locomotion/raw/AMASS_SMPLXG/WEIZMANN/67/Mixed_FastSlow(3)_stageii.npz
Output file: ../robot/ik_based/pkl/016058.pkl
Processing time: 2.99 seconds
Total file time: 3.11 seconds
Status: SUCCESS
==================================================

=== SUCCESS LOG - 2025-10-14 17:34:49 ===
Input file: /data/retarget/locomotion/raw/AMASS_SMPLXG/WEIZMANN/67/Mixed_FastSlow(30)_stageii.npz
Output file: ../robot/ik_based/pkl/016059.pkl
Robot type: unitree_g1
Processing time: 2.85 seconds

STEP-BY-STEP TIMING:
  Step 1 - Load SMPLX:        0.81s
  Step 2 - Align FPS:         0.30s
  Step 3 - Init Retarget:     0.19s
  Step 4 - Init Visualization: 0.00s
  Step 5 - Process Frames:    1.51s (avg: 0.029s/frame)
  Step 6 - Convert Arrays:    0.00s
  Step 7 - Forward Kinematics: 0.02s
  Step 8 - Save Data:         0.00s
Status: SUCCESS
==================================================

=== FILE SUCCESS - 2025-10-14 17:34:49 ===
File index: 016059
File number: 60/1757
Input file: /data/retarget/locomotion/raw/AMASS_SMPLXG/WEIZMANN/67/Mixed_FastSlow(30)_stageii.npz
Output file: ../robot/ik_based/pkl/016059.pkl
Processing time: 2.85 seconds
Total file time: 2.95 seconds
Status: SUCCESS
==================================================

=== SUCCESS LOG - 2025-10-14 17:34:52 ===
Input file: /data/retarget/locomotion/raw/AMASS_SMPLXG/WEIZMANN/67/Mixed_FastSlow(31)_stageii.npz
Output file: ../robot/ik_based/pkl/016060.pkl
Robot type: unitree_g1
Processing time: 2.71 seconds

STEP-BY-STEP TIMING:
  Step 1 - Load SMPLX:        0.78s
  Step 2 - Align FPS:         0.26s
  Step 3 - Init Retarget:     0.21s
  Step 4 - Init Visualization: 0.00s
  Step 5 - Process Frames:    1.42s (avg: 0.028s/frame)
  Step 6 - Convert Arrays:    0.00s
  Step 7 - Forward Kinematics: 0.02s
  Step 8 - Save Data:         0.00s
Status: SUCCESS
==================================================

=== FILE SUCCESS - 2025-10-14 17:34:52 ===
File index: 016060
File number: 61/1757
Input file: /data/retarget/locomotion/raw/AMASS_SMPLXG/WEIZMANN/67/Mixed_FastSlow(31)_stageii.npz
Output file: ../robot/ik_based/pkl/016060.pkl
Processing time: 2.71 seconds
Total file time: 2.80 seconds
Status: SUCCESS
==================================================

=== SUCCESS LOG - 2025-10-14 17:34:55 ===
Input file: /data/retarget/locomotion/raw/AMASS_SMPLXG/WEIZMANN/67/Mixed_FastSlow(32)_stageii.npz
Output file: ../robot/ik_based/pkl/016061.pkl
Robot type: unitree_g1
Processing time: 2.76 seconds

STEP-BY-STEP TIMING:
  Step 1 - Load SMPLX:        0.82s
  Step 2 - Align FPS:         0.26s
  Step 3 - Init Retarget:     0.18s
  Step 4 - Init Visualization: 0.00s
  Step 5 - Process Frames:    1.45s (avg: 0.029s/frame)
  Step 6 - Convert Arrays:    0.00s
  Step 7 - Forward Kinematics: 0.02s
  Step 8 - Save Data:         0.00s
Status: SUCCESS
==================================================

=== FILE SUCCESS - 2025-10-14 17:34:55 ===
File index: 016061
File number: 62/1757
Input file: /data/retarget/locomotion/raw/AMASS_SMPLXG/WEIZMANN/67/Mixed_FastSlow(32)_stageii.npz
Output file: ../robot/ik_based/pkl/016061.pkl
Processing time: 2.76 seconds
Total file time: 2.85 seconds
Status: SUCCESS
==================================================

=== SUCCESS LOG - 2025-10-14 17:34:58 ===
Input file: /data/retarget/locomotion/raw/AMASS_SMPLXG/WEIZMANN/67/Mixed_FastSlow(4)_stageii.npz
Output file: ../robot/ik_based/pkl/016062.pkl
Robot type: unitree_g1
Processing time: 3.11 seconds

STEP-BY-STEP TIMING:
  Step 1 - Load SMPLX:        0.75s
  Step 2 - Align FPS:         0.30s
  Step 3 - Init Retarget:     0.17s
  Step 4 - Init Visualization: 0.00s
  Step 5 - Process Frames:    1.86s (avg: 0.032s/frame)
  Step 6 - Convert Arrays:    0.00s
  Step 7 - Forward Kinematics: 0.02s
  Step 8 - Save Data:         0.00s
Status: SUCCESS
==================================================

=== FILE SUCCESS - 2025-10-14 17:34:58 ===
File index: 016062
File number: 63/1757
Input file: /data/retarget/locomotion/raw/AMASS_SMPLXG/WEIZMANN/67/Mixed_FastSlow(4)_stageii.npz
Output file: ../robot/ik_based/pkl/016062.pkl
Processing time: 3.11 seconds
Total file time: 3.21 seconds
Status: SUCCESS
==================================================

=== SUCCESS LOG - 2025-10-14 17:35:01 ===
Input file: /data/retarget/locomotion/raw/AMASS_SMPLXG/WEIZMANN/67/Mixed_FastSlow(5)_stageii.npz
Output file: ../robot/ik_based/pkl/016063.pkl
Robot type: unitree_g1
Processing time: 3.28 seconds

STEP-BY-STEP TIMING:
  Step 1 - Load SMPLX:        0.85s
  Step 2 - Align FPS:         0.33s
  Step 3 - Init Retarget:     0.17s
  Step 4 - Init Visualization: 0.00s
  Step 5 - Process Frames:    1.88s (avg: 0.028s/frame)
  Step 6 - Convert Arrays:    0.00s
  Step 7 - Forward Kinematics: 0.02s
  Step 8 - Save Data:         0.00s
Status: SUCCESS
==================================================

=== FILE SUCCESS - 2025-10-14 17:35:02 ===
File index: 016063
File number: 64/1757
Input file: /data/retarget/locomotion/raw/AMASS_SMPLXG/WEIZMANN/67/Mixed_FastSlow(5)_stageii.npz
Output file: ../robot/ik_based/pkl/016063.pkl
Processing time: 3.28 seconds
Total file time: 3.38 seconds
Status: SUCCESS
==================================================

=== SUCCESS LOG - 2025-10-14 17:35:04 ===
Input file: /data/retarget/locomotion/raw/AMASS_SMPLXG/WEIZMANN/67/Mixed_FastSlow(6)_stageii.npz
Output file: ../robot/ik_based/pkl/016064.pkl
Robot type: unitree_g1
Processing time: 2.91 seconds

STEP-BY-STEP TIMING:
  Step 1 - Load SMPLX:        0.76s
  Step 2 - Align FPS:         0.32s
  Step 3 - Init Retarget:     0.17s
  Step 4 - Init Visualization: 0.00s
  Step 5 - Process Frames:    1.62s (avg: 0.026s/frame)
  Step 6 - Convert Arrays:    0.00s
  Step 7 - Forward Kinematics: 0.02s
  Step 8 - Save Data:         0.00s
Status: SUCCESS
==================================================

=== FILE SUCCESS - 2025-10-14 17:35:05 ===
File index: 016064
File number: 65/1757
Input file: /data/retarget/locomotion/raw/AMASS_SMPLXG/WEIZMANN/67/Mixed_FastSlow(6)_stageii.npz
Output file: ../robot/ik_based/pkl/016064.pkl
Processing time: 2.91 seconds
Total file time: 3.00 seconds
Status: SUCCESS
==================================================

=== SUCCESS LOG - 2025-10-14 17:35:09 ===
Input file: /data/retarget/locomotion/raw/AMASS_SMPLXG/WEIZMANN/67/Mixed_FastSlow(7)_stageii.npz
Output file: ../robot/ik_based/pkl/016065.pkl
Robot type: unitree_g1
Processing time: 3.94 seconds

STEP-BY-STEP TIMING:
  Step 1 - Load SMPLX:        0.78s
  Step 2 - Align FPS:         0.75s
  Step 3 - Init Retarget:     0.17s
  Step 4 - Init Visualization: 0.00s
  Step 5 - Process Frames:    2.17s (avg: 0.036s/frame)
  Step 6 - Convert Arrays:    0.00s
  Step 7 - Forward Kinematics: 0.03s
  Step 8 - Save Data:         0.00s
Status: SUCCESS
==================================================

=== FILE SUCCESS - 2025-10-14 17:35:09 ===
File index: 016065
File number: 66/1757
Input file: /data/retarget/locomotion/raw/AMASS_SMPLXG/WEIZMANN/67/Mixed_FastSlow(7)_stageii.npz
Output file: ../robot/ik_based/pkl/016065.pkl
Processing time: 3.94 seconds
Total file time: 4.12 seconds
Status: SUCCESS
==================================================

=== SUCCESS LOG - 2025-10-14 17:35:12 ===
Input file: /data/retarget/locomotion/raw/AMASS_SMPLXG/WEIZMANN/67/Mixed_FastSlow(8)_stageii.npz
Output file: ../robot/ik_based/pkl/016066.pkl
Robot type: unitree_g1
Processing time: 3.51 seconds

STEP-BY-STEP TIMING:
  Step 1 - Load SMPLX:        0.93s
  Step 2 - Align FPS:         0.30s
  Step 3 - Init Retarget:     0.18s
  Step 4 - Init Visualization: 0.00s
  Step 5 - Process Frames:    2.05s (avg: 0.037s/frame)
  Step 6 - Convert Arrays:    0.00s
  Step 7 - Forward Kinematics: 0.02s
  Step 8 - Save Data:         0.00s
Status: SUCCESS
==================================================

=== FILE SUCCESS - 2025-10-14 17:35:12 ===
File index: 016066
File number: 67/1757
Input file: /data/retarget/locomotion/raw/AMASS_SMPLXG/WEIZMANN/67/Mixed_FastSlow(8)_stageii.npz
Output file: ../robot/ik_based/pkl/016066.pkl
Processing time: 3.51 seconds
Total file time: 3.60 seconds
Status: SUCCESS
==================================================

=== SUCCESS LOG - 2025-10-14 17:35:15 ===
Input file: /data/retarget/locomotion/raw/AMASS_SMPLXG/WEIZMANN/67/Mixed_FastSlow(9)_stageii.npz
Output file: ../robot/ik_based/pkl/016067.pkl
Robot type: unitree_g1
Processing time: 3.16 seconds

STEP-BY-STEP TIMING:
  Step 1 - Load SMPLX:        0.77s
  Step 2 - Align FPS:         0.32s
  Step 3 - Init Retarget:     0.19s
  Step 4 - Init Visualization: 0.00s
  Step 5 - Process Frames:    1.84s (avg: 0.029s/frame)
  Step 6 - Convert Arrays:    0.00s
  Step 7 - Forward Kinematics: 0.02s
  Step 8 - Save Data:         0.00s
Status: SUCCESS
==================================================

=== FILE SUCCESS - 2025-10-14 17:35:16 ===
File index: 016067
File number: 68/1757
Input file: /data/retarget/locomotion/raw/AMASS_SMPLXG/WEIZMANN/67/Mixed_FastSlow(9)_stageii.npz
Output file: ../robot/ik_based/pkl/016067.pkl
Processing time: 3.16 seconds
Total file time: 3.27 seconds
Status: SUCCESS
==================================================

=== SUCCESS LOG - 2025-10-14 17:35:18 ===
Input file: /data/retarget/locomotion/raw/AMASS_SMPLXG/WEIZMANN/67/Mixed_SlowFast(1)_stageii.npz
Output file: ../robot/ik_based/pkl/016068.pkl
Robot type: unitree_g1
Processing time: 2.56 seconds

STEP-BY-STEP TIMING:
  Step 1 - Load SMPLX:        0.75s
  Step 2 - Align FPS:         0.27s
  Step 3 - Init Retarget:     0.13s
  Step 4 - Init Visualization: 0.00s
  Step 5 - Process Frames:    1.36s (avg: 0.029s/frame)
  Step 6 - Convert Arrays:    0.00s
  Step 7 - Forward Kinematics: 0.02s
  Step 8 - Save Data:         0.00s
Status: SUCCESS
==================================================

=== FILE SUCCESS - 2025-10-14 17:35:18 ===
File index: 016068
File number: 69/1757
Input file: /data/retarget/locomotion/raw/AMASS_SMPLXG/WEIZMANN/67/Mixed_SlowFast(1)_stageii.npz
Output file: ../robot/ik_based/pkl/016068.pkl
Processing time: 2.56 seconds
Total file time: 2.64 seconds
Status: SUCCESS
==================================================

=== SUCCESS LOG - 2025-10-14 17:35:21 ===
Input file: /data/retarget/locomotion/raw/AMASS_SMPLXG/WEIZMANN/67/Mixed_SlowFast(10)_stageii.npz
Output file: ../robot/ik_based/pkl/016069.pkl
Robot type: unitree_g1
Processing time: 2.47 seconds

STEP-BY-STEP TIMING:
  Step 1 - Load SMPLX:        0.76s
  Step 2 - Align FPS:         0.22s
  Step 3 - Init Retarget:     0.23s
  Step 4 - Init Visualization: 0.00s
  Step 5 - Process Frames:    1.22s (avg: 0.029s/frame)
  Step 6 - Convert Arrays:    0.00s
  Step 7 - Forward Kinematics: 0.02s
  Step 8 - Save Data:         0.00s
Status: SUCCESS
==================================================

=== FILE SUCCESS - 2025-10-14 17:35:21 ===
File index: 016069
File number: 70/1757
Input file: /data/retarget/locomotion/raw/AMASS_SMPLXG/WEIZMANN/67/Mixed_SlowFast(10)_stageii.npz
Output file: ../robot/ik_based/pkl/016069.pkl
Processing time: 2.47 seconds
Total file time: 2.54 seconds
Status: SUCCESS
==================================================

=== SUCCESS LOG - 2025-10-14 17:35:23 ===
Input file: /data/retarget/locomotion/raw/AMASS_SMPLXG/WEIZMANN/67/Mixed_SlowFast(11)_stageii.npz
Output file: ../robot/ik_based/pkl/016070.pkl
Robot type: unitree_g1
Processing time: 2.57 seconds

STEP-BY-STEP TIMING:
  Step 1 - Load SMPLX:        0.97s
  Step 2 - Align FPS:         0.21s
  Step 3 - Init Retarget:     0.17s
  Step 4 - Init Visualization: 0.00s
  Step 5 - Process Frames:    1.18s (avg: 0.030s/frame)
  Step 6 - Convert Arrays:    0.00s
  Step 7 - Forward Kinematics: 0.02s
  Step 8 - Save Data:         0.00s
Status: SUCCESS
==================================================

=== FILE SUCCESS - 2025-10-14 17:35:23 ===
File index: 016070
File number: 71/1757
Input file: /data/retarget/locomotion/raw/AMASS_SMPLXG/WEIZMANN/67/Mixed_SlowFast(11)_stageii.npz
Output file: ../robot/ik_based/pkl/016070.pkl
Processing time: 2.57 seconds
Total file time: 2.64 seconds
Status: SUCCESS
==================================================

=== SUCCESS LOG - 2025-10-14 17:35:27 ===
Input file: /data/retarget/locomotion/raw/AMASS_SMPLXG/WEIZMANN/67/Mixed_SlowFast(12)_stageii.npz
Output file: ../robot/ik_based/pkl/016071.pkl
Robot type: unitree_g1
Processing time: 3.31 seconds

STEP-BY-STEP TIMING:
  Step 1 - Load SMPLX:        0.84s
  Step 2 - Align FPS:         0.30s
  Step 3 - Init Retarget:     0.24s
  Step 4 - Init Visualization: 0.00s
  Step 5 - Process Frames:    1.88s (avg: 0.040s/frame)
  Step 6 - Convert Arrays:    0.00s
  Step 7 - Forward Kinematics: 0.02s
  Step 8 - Save Data:         0.00s
Status: SUCCESS
==================================================

=== FILE SUCCESS - 2025-10-14 17:35:27 ===
File index: 016071
File number: 72/1757
Input file: /data/retarget/locomotion/raw/AMASS_SMPLXG/WEIZMANN/67/Mixed_SlowFast(12)_stageii.npz
Output file: ../robot/ik_based/pkl/016071.pkl
Processing time: 3.31 seconds
Total file time: 3.39 seconds
Status: SUCCESS
==================================================

=== SUCCESS LOG - 2025-10-14 17:35:30 ===
Input file: /data/retarget/locomotion/raw/AMASS_SMPLXG/WEIZMANN/67/Mixed_SlowFast(13)_stageii.npz
Output file: ../robot/ik_based/pkl/016072.pkl
Robot type: unitree_g1
Processing time: 2.74 seconds

STEP-BY-STEP TIMING:
  Step 1 - Load SMPLX:        0.76s
  Step 2 - Align FPS:         0.26s
  Step 3 - Init Retarget:     0.18s
  Step 4 - Init Visualization: 0.00s
  Step 5 - Process Frames:    1.49s (avg: 0.030s/frame)
  Step 6 - Convert Arrays:    0.00s
  Step 7 - Forward Kinematics: 0.02s
  Step 8 - Save Data:         0.00s
Status: SUCCESS
==================================================

=== FILE SUCCESS - 2025-10-14 17:35:30 ===
File index: 016072
File number: 73/1757
Input file: /data/retarget/locomotion/raw/AMASS_SMPLXG/WEIZMANN/67/Mixed_SlowFast(13)_stageii.npz
Output file: ../robot/ik_based/pkl/016072.pkl
Processing time: 2.74 seconds
Total file time: 2.86 seconds
Status: SUCCESS
==================================================

=== SUCCESS LOG - 2025-10-14 17:35:32 ===
Input file: /data/retarget/locomotion/raw/AMASS_SMPLXG/WEIZMANN/67/Mixed_SlowFast(14)_stageii.npz
Output file: ../robot/ik_based/pkl/016073.pkl
Robot type: unitree_g1
Processing time: 2.40 seconds

STEP-BY-STEP TIMING:
  Step 1 - Load SMPLX:        0.78s
  Step 2 - Align FPS:         0.22s
  Step 3 - Init Retarget:     0.18s
  Step 4 - Init Visualization: 0.00s
  Step 5 - Process Frames:    1.18s (avg: 0.029s/frame)
  Step 6 - Convert Arrays:    0.00s
  Step 7 - Forward Kinematics: 0.02s
  Step 8 - Save Data:         0.00s
Status: SUCCESS
==================================================

=== FILE SUCCESS - 2025-10-14 17:35:32 ===
File index: 016073
File number: 74/1757
Input file: /data/retarget/locomotion/raw/AMASS_SMPLXG/WEIZMANN/67/Mixed_SlowFast(14)_stageii.npz
Output file: ../robot/ik_based/pkl/016073.pkl
Processing time: 2.40 seconds
Total file time: 2.49 seconds
Status: SUCCESS
==================================================

=== SUCCESS LOG - 2025-10-14 17:35:35 ===
Input file: /data/retarget/locomotion/raw/AMASS_SMPLXG/WEIZMANN/67/Mixed_SlowFast(15)_stageii.npz
Output file: ../robot/ik_based/pkl/016074.pkl
Robot type: unitree_g1
Processing time: 3.01 seconds

STEP-BY-STEP TIMING:
  Step 1 - Load SMPLX:        0.77s
  Step 2 - Align FPS:         0.33s
  Step 3 - Init Retarget:     0.21s
  Step 4 - Init Visualization: 0.00s
  Step 5 - Process Frames:    1.65s (avg: 0.025s/frame)
  Step 6 - Convert Arrays:    0.00s
  Step 7 - Forward Kinematics: 0.02s
  Step 8 - Save Data:         0.00s
Status: SUCCESS
==================================================

=== FILE SUCCESS - 2025-10-14 17:35:35 ===
File index: 016074
File number: 75/1757
Input file: /data/retarget/locomotion/raw/AMASS_SMPLXG/WEIZMANN/67/Mixed_SlowFast(15)_stageii.npz
Output file: ../robot/ik_based/pkl/016074.pkl
Processing time: 3.01 seconds
Total file time: 3.13 seconds
Status: SUCCESS
==================================================

=== SUCCESS LOG - 2025-10-14 17:35:38 ===
Input file: /data/retarget/locomotion/raw/AMASS_SMPLXG/WEIZMANN/67/Mixed_SlowFast(16)_stageii.npz
Output file: ../robot/ik_based/pkl/016075.pkl
Robot type: unitree_g1
Processing time: 3.09 seconds

STEP-BY-STEP TIMING:
  Step 1 - Load SMPLX:        1.23s
  Step 2 - Align FPS:         0.21s
  Step 3 - Init Retarget:     0.27s
  Step 4 - Init Visualization: 0.00s
  Step 5 - Process Frames:    1.33s (avg: 0.033s/frame)
  Step 6 - Convert Arrays:    0.00s
  Step 7 - Forward Kinematics: 0.02s
  Step 8 - Save Data:         0.00s
Status: SUCCESS
==================================================

=== FILE SUCCESS - 2025-10-14 17:35:38 ===
File index: 016075
File number: 76/1757
Input file: /data/retarget/locomotion/raw/AMASS_SMPLXG/WEIZMANN/67/Mixed_SlowFast(16)_stageii.npz
Output file: ../robot/ik_based/pkl/016075.pkl
Processing time: 3.09 seconds
Total file time: 3.18 seconds
Status: SUCCESS
==================================================

=== SUCCESS LOG - 2025-10-14 17:35:41 ===
Input file: /data/retarget/locomotion/raw/AMASS_SMPLXG/WEIZMANN/67/Mixed_SlowFast(17)_stageii.npz
Output file: ../robot/ik_based/pkl/016076.pkl
Robot type: unitree_g1
Processing time: 2.55 seconds

STEP-BY-STEP TIMING:
  Step 1 - Load SMPLX:        0.79s
  Step 2 - Align FPS:         0.21s
  Step 3 - Init Retarget:     0.21s
  Step 4 - Init Visualization: 0.00s
  Step 5 - Process Frames:    1.28s (avg: 0.031s/frame)
  Step 6 - Convert Arrays:    0.00s
  Step 7 - Forward Kinematics: 0.03s
  Step 8 - Save Data:         0.00s
Status: SUCCESS
==================================================

=== FILE SUCCESS - 2025-10-14 17:35:41 ===
File index: 016076
File number: 77/1757
Input file: /data/retarget/locomotion/raw/AMASS_SMPLXG/WEIZMANN/67/Mixed_SlowFast(17)_stageii.npz
Output file: ../robot/ik_based/pkl/016076.pkl
Processing time: 2.55 seconds
Total file time: 2.72 seconds
Status: SUCCESS
==================================================

=== SUCCESS LOG - 2025-10-14 17:35:44 ===
Input file: /data/retarget/locomotion/raw/AMASS_SMPLXG/WEIZMANN/67/Mixed_SlowFast(18)_stageii.npz
Output file: ../robot/ik_based/pkl/016077.pkl
Robot type: unitree_g1
Processing time: 2.52 seconds

STEP-BY-STEP TIMING:
  Step 1 - Load SMPLX:        0.79s
  Step 2 - Align FPS:         0.23s
  Step 3 - Init Retarget:     0.20s
  Step 4 - Init Visualization: 0.00s
  Step 5 - Process Frames:    1.25s (avg: 0.029s/frame)
  Step 6 - Convert Arrays:    0.00s
  Step 7 - Forward Kinematics: 0.02s
  Step 8 - Save Data:         0.00s
Status: SUCCESS
==================================================

=== FILE SUCCESS - 2025-10-14 17:35:44 ===
File index: 016077
File number: 78/1757
Input file: /data/retarget/locomotion/raw/AMASS_SMPLXG/WEIZMANN/67/Mixed_SlowFast(18)_stageii.npz
Output file: ../robot/ik_based/pkl/016077.pkl
Processing time: 2.52 seconds
Total file time: 2.61 seconds
Status: SUCCESS
==================================================

=== SUCCESS LOG - 2025-10-14 17:35:46 ===
Input file: /data/retarget/locomotion/raw/AMASS_SMPLXG/WEIZMANN/67/Mixed_SlowFast(19)_stageii.npz
Output file: ../robot/ik_based/pkl/016078.pkl
Robot type: unitree_g1
Processing time: 2.35 seconds

STEP-BY-STEP TIMING:
  Step 1 - Load SMPLX:        0.75s
  Step 2 - Align FPS:         0.21s
  Step 3 - Init Retarget:     0.20s
  Step 4 - Init Visualization: 0.00s
  Step 5 - Process Frames:    1.15s (avg: 0.030s/frame)
  Step 6 - Convert Arrays:    0.00s
  Step 7 - Forward Kinematics: 0.02s
  Step 8 - Save Data:         0.00s
Status: SUCCESS
==================================================

=== FILE SUCCESS - 2025-10-14 17:35:46 ===
File index: 016078
File number: 79/1757
Input file: /data/retarget/locomotion/raw/AMASS_SMPLXG/WEIZMANN/67/Mixed_SlowFast(19)_stageii.npz
Output file: ../robot/ik_based/pkl/016078.pkl
Processing time: 2.35 seconds
Total file time: 2.44 seconds
Status: SUCCESS
==================================================

=== SUCCESS LOG - 2025-10-14 17:35:49 ===
Input file: /data/retarget/locomotion/raw/AMASS_SMPLXG/WEIZMANN/67/Mixed_SlowFast(2)_stageii.npz
Output file: ../robot/ik_based/pkl/016079.pkl
Robot type: unitree_g1
Processing time: 2.65 seconds

STEP-BY-STEP TIMING:
  Step 1 - Load SMPLX:        0.83s
  Step 2 - Align FPS:         0.30s
  Step 3 - Init Retarget:     0.20s
  Step 4 - Init Visualization: 0.00s
  Step 5 - Process Frames:    1.27s (avg: 0.029s/frame)
  Step 6 - Convert Arrays:    0.00s
  Step 7 - Forward Kinematics: 0.02s
  Step 8 - Save Data:         0.00s
Status: SUCCESS
==================================================

=== FILE SUCCESS - 2025-10-14 17:35:49 ===
File index: 016079
File number: 80/1757
Input file: /data/retarget/locomotion/raw/AMASS_SMPLXG/WEIZMANN/67/Mixed_SlowFast(2)_stageii.npz
Output file: ../robot/ik_based/pkl/016079.pkl
Processing time: 2.65 seconds
Total file time: 2.81 seconds
Status: SUCCESS
==================================================

=== SUCCESS LOG - 2025-10-14 17:35:52 ===
Input file: /data/retarget/locomotion/raw/AMASS_SMPLXG/WEIZMANN/67/Mixed_SlowFast(20)_stageii.npz
Output file: ../robot/ik_based/pkl/016080.pkl
Robot type: unitree_g1
Processing time: 3.21 seconds

STEP-BY-STEP TIMING:
  Step 1 - Load SMPLX:        1.15s
[...]

=== SKIPPED (ALREADY EXISTS) - 2025-10-14 20:54:33 ===
File index: 017694
Input file: /data/retarget/locomotion/raw/AMASS_SMPLXG/WEIZMANN/70/Slow_SShapeRL(21)_stageii.npz
Output file: ../robot/ik_based/pkl/017694.pkl
Status: SKIPPED (ALREADY EXISTS)
==================================================

=== SKIPPED (ALREADY EXISTS) - 2025-10-14 20:54:33 ===
File index: 017695
Input file: /data/retarget/locomotion/raw/AMASS_SMPLXG/WEIZMANN/70/Slow_SShapeRL(22)_stageii.npz
Output file: ../robot/ik_based/pkl/017695.pkl
Status: SKIPPED (ALREADY EXISTS)
==================================================

=== SKIPPED (ALREADY EXISTS) - 2025-10-14 20:54:33 ===
File index: 017696
Input file: /data/retarget/locomotion/raw/AMASS_SMPLXG/WEIZMANN/70/Slow_SShapeRL(23)_stageii.npz
Output file: ../robot/ik_based/pkl/017696.pkl
Status: SKIPPED (ALREADY EXISTS)
==================================================

=== SKIPPED (ALREADY EXISTS) - 2025-10-14 20:54:33 ===
File index: 017697
Input file: /data/retarget/locomotion/raw/AMASS_SMPLXG/WEIZMANN/70/Slow_SShapeRL(3)_stageii.npz
Output file: ../robot/ik_based/pkl/017697.pkl
Status: SKIPPED (ALREADY EXISTS)
==================================================

=== SKIPPED (ALREADY EXISTS) - 2025-10-14 20:54:33 ===
File index: 017698
Input file: /data/retarget/locomotion/raw/AMASS_SMPLXG/WEIZMANN/70/Slow_SShapeRL(4)_stageii.npz
Output file: ../robot/ik_based/pkl/017698.pkl
Status: SKIPPED (ALREADY EXISTS)
==================================================

=== SKIPPED (ALREADY EXISTS) - 2025-10-14 20:54:33 ===
File index: 017699
Input file: /data/retarget/locomotion/raw/AMASS_SMPLXG/WEIZMANN/70/Slow_SShapeRL(5)_stageii.npz
Output file: ../robot/ik_based/pkl/017699.pkl
Status: SKIPPED (ALREADY EXISTS)
==================================================

=== SKIPPED (ALREADY EXISTS) - 2025-10-14 20:54:33 ===
File index: 017700
Input file: /data/retarget/locomotion/raw/AMASS_SMPLXG/WEIZMANN/70/Slow_SShapeRL(6)_stageii.npz
Output file: ../robot/ik_based/pkl/017700.pkl
Status: SKIPPED (ALREADY EXISTS)
==================================================

=== SKIPPED (ALREADY EXISTS) - 2025-10-14 20:54:33 ===
File index: 017701
Input file: /data/retarget/locomotion/raw/AMASS_SMPLXG/WEIZMANN/70/Slow_SShapeRL(7)_stageii.npz
Output file: ../robot/ik_based/pkl/017701.pkl
Status: SKIPPED (ALREADY EXISTS)
==================================================

=== SKIPPED (ALREADY EXISTS) - 2025-10-14 20:54:33 ===
File index: 017702
Input file: /data/retarget/locomotion/raw/AMASS_SMPLXG/WEIZMANN/70/Slow_SShapeRL(8)_stageii.npz
Output file: ../robot/ik_based/pkl/017702.pkl
Status: SKIPPED (ALREADY EXISTS)
==================================================

=== SKIPPED (ALREADY EXISTS) - 2025-10-14 20:54:33 ===
File index: 017703
Input file: /data/retarget/locomotion/raw/AMASS_SMPLXG/WEIZMANN/70/Slow_SShapeRL(9)_stageii.npz
Output file: ../robot/ik_based/pkl/017703.pkl
Status: SKIPPED (ALREADY EXISTS)
==================================================

=== SKIPPED (ALREADY EXISTS) - 2025-10-14 20:54:33 ===
File index: 017704
Input file: /data/retarget/locomotion/raw/AMASS_SMPLXG/WEIZMANN/70/Slow_StraightLong(1)_stageii.npz
Output file: ../robot/ik_based/pkl/017704.pkl
Status: SKIPPED (ALREADY EXISTS)
==================================================

=== SKIPPED (ALREADY EXISTS) - 2025-10-14 20:54:33 ===
File index: 017705
Input file: /data/retarget/locomotion/raw/AMASS_SMPLXG/WEIZMANN/70/Slow_StraightLong(10)_stageii.npz
Output file: ../robot/ik_based/pkl/017705.pkl
Status: SKIPPED (ALREADY EXISTS)
==================================================

=== SKIPPED (ALREADY EXISTS) - 2025-10-14 20:54:33 ===
File index: 017706
Input file: /data/retarget/locomotion/raw/AMASS_SMPLXG/WEIZMANN/70/Slow_StraightLong(11)_stageii.npz
Output file: ../robot/ik_based/pkl/017706.pkl
Status: SKIPPED (ALREADY EXISTS)
==================================================

=== SKIPPED (ALREADY EXISTS) - 2025-10-14 20:54:33 ===
File index: 017707
Input file: /data/retarget/locomotion/raw/AMASS_SMPLXG/WEIZMANN/70/Slow_StraightLong(12)_stageii.npz
Output file: ../robot/ik_based/pkl/017707.pkl
Status: SKIPPED (ALREADY EXISTS)
==================================================

=== SKIPPED (ALREADY EXISTS) - 2025-10-14 20:54:33 ===
File index: 017708
Input file: /data/retarget/locomotion/raw/AMASS_SMPLXG/WEIZMANN/70/Slow_StraightLong(13)_stageii.npz
Output file: ../robot/ik_based/pkl/017708.pkl
Status: SKIPPED (ALREADY EXISTS)
==================================================

=== SKIPPED (ALREADY EXISTS) - 2025-10-14 20:54:33 ===
File index: 017709
Input file: /data/retarget/locomotion/raw/AMASS_SMPLXG/WEIZMANN/70/Slow_StraightLong(14)_stageii.npz
Output file: ../robot/ik_based/pkl/017709.pkl
Status: SKIPPED (ALREADY EXISTS)
==================================================

=== SKIPPED (ALREADY EXISTS) - 2025-10-14 20:54:33 ===
File index: 017710
Input file: /data/retarget/locomotion/raw/AMASS_SMPLXG/WEIZMANN/70/Slow_StraightLong(15)_stageii.npz
Output file: ../robot/ik_based/pkl/017710.pkl
Status: SKIPPED (ALREADY EXISTS)
==================================================

=== SKIPPED (ALREADY EXISTS) - 2025-10-14 20:54:33 ===
File index: 017711
Input file: /data/retarget/locomotion/raw/AMASS_SMPLXG/WEIZMANN/70/Slow_StraightLong(16)_stageii.npz
Output file: ../robot/ik_based/pkl/017711.pkl
Status: SKIPPED (ALREADY EXISTS)
==================================================

=== SKIPPED (ALREADY EXISTS) - 2025-10-14 20:54:33 ===
File index: 017712
Input file: /data/retarget/locomotion/raw/AMASS_SMPLXG/WEIZMANN/70/Slow_StraightLong(17)_stageii.npz
Output file: ../robot/ik_based/pkl/017712.pkl
Status: SKIPPED (ALREADY EXISTS)
==================================================

=== SKIPPED (ALREADY EXISTS) - 2025-10-14 20:54:33 ===
File index: 017713
Input file: /data/retarget/locomotion/raw/AMASS_SMPLXG/WEIZMANN/70/Slow_StraightLong(18)_stageii.npz
Output file: ../robot/ik_based/pkl/017713.pkl
Status: SKIPPED (ALREADY EXISTS)
==================================================

=== SKIPPED (ALREADY EXISTS) - 2025-10-14 20:54:33 ===
File index: 017714
Input file: /data/retarget/locomotion/raw/AMASS_SMPLXG/WEIZMANN/70/Slow_StraightLong(19)_stageii.npz
Output file: ../robot/ik_based/pkl/017714.pkl
Status: SKIPPED (ALREADY EXISTS)
==================================================

=== SKIPPED (ALREADY EXISTS) - 2025-10-14 20:54:33 ===
File index: 017715
Input file: /data/retarget/locomotion/raw/AMASS_SMPLXG/WEIZMANN/70/Slow_StraightLong(2)_stageii.npz
Output file: ../robot/ik_based/pkl/017715.pkl
Status: SKIPPED (ALREADY EXISTS)
==================================================

=== SKIPPED (ALREADY EXISTS) - 2025-10-14 20:54:33 ===
File index: 017716
Input file: /data/retarget/locomotion/raw/AMASS_SMPLXG/WEIZMANN/70/Slow_StraightLong(20)_stageii.npz
Output file: ../robot/ik_based/pkl/017716.pkl
Status: SKIPPED (ALREADY EXISTS)
==================================================

=== SKIPPED (ALREADY EXISTS) - 2025-10-14 20:54:33 ===
File index: 017717
Input file: /data/retarget/locomotion/raw/AMASS_SMPLXG/WEIZMANN/70/Slow_StraightLong(21)_stageii.npz
Output file: ../robot/ik_based/pkl/017717.pkl
Status: SKIPPED (ALREADY EXISTS)
==================================================

=== SKIPPED (ALREADY EXISTS) - 2025-10-14 20:54:33 ===
File index: 017718
Input file: /data/retarget/locomotion/raw/AMASS_SMPLXG/WEIZMANN/70/Slow_StraightLong(22)_stageii.npz
Output file: ../robot/ik_based/pkl/017718.pkl
Status: SKIPPED (ALREADY EXISTS)
==================================================

=== SKIPPED (ALREADY EXISTS) - 2025-10-14 20:54:33 ===
File index: 017719
Input file: /data/retarget/locomotion/raw/AMASS_SMPLXG/WEIZMANN/70/Slow_StraightLong(23)_stageii.npz
Output file: ../robot/ik_based/pkl/017719.pkl
Status: SKIPPED (ALREADY EXISTS)
==================================================

=== SKIPPED (ALREADY EXISTS) - 2025-10-14 20:54:33 ===
File index: 017720
Input file: /data/retarget/locomotion/raw/AMASS_SMPLXG/WEIZMANN/70/Slow_StraightLong(24)_stageii.npz
Output file: ../robot/ik_based/pkl/017720.pkl
Status: SKIPPED (ALREADY EXISTS)
==================================================

=== SKIPPED (ALREADY EXISTS) - 2025-10-14 20:54:33 ===
File index: 017721
Input file: /data/retarget/locomotion/raw/AMASS_SMPLXG/WEIZMANN/70/Slow_StraightLong(25)_stageii.npz
Output file: ../robot/ik_based/pkl/017721.pkl
Status: SKIPPED (ALREADY EXISTS)
==================================================

=== SKIPPED (ALREADY EXISTS) - 2025-10-14 20:54:33 ===
File index: 017722
Input file: /data/retarget/locomotion/raw/AMASS_SMPLXG/WEIZMANN/70/Slow_StraightLong(26)_stageii.npz
Output file: ../robot/ik_based/pkl/017722.pkl
Status: SKIPPED (ALREADY EXISTS)
==================================================

=== SKIPPED (ALREADY EXISTS) - 2025-10-14 20:54:33 ===
File index: 017723
Input file: /data/retarget/locomotion/raw/AMASS_SMPLXG/WEIZMANN/70/Slow_StraightLong(27)_stageii.npz
Output file: ../robot/ik_based/pkl/017723.pkl
Status: SKIPPED (ALREADY EXISTS)
==================================================

=== SKIPPED (ALREADY EXISTS) - 2025-10-14 20:54:33 ===
File index: 017724
Input file: /data/retarget/locomotion/raw/AMASS_SMPLXG/WEIZMANN/70/Slow_StraightLong(28)_stageii.npz
Output file: ../robot/ik_based/pkl/017724.pkl
Status: SKIPPED (ALREADY EXISTS)
==================================================

=== SKIPPED (ALREADY EXISTS) - 2025-10-14 20:54:33 ===
File index: 017725
Input file: /data/retarget/locomotion/raw/AMASS_SMPLXG/WEIZMANN/70/Slow_StraightLong(29)_stageii.npz
Output file: ../robot/ik_based/pkl/017725.pkl
Status: SKIPPED (ALREADY EXISTS)
==================================================

=== SKIPPED (ALREADY EXISTS) - 2025-10-14 20:54:33 ===
File index: 017726
Input file: /data/retarget/locomotion/raw/AMASS_SMPLXG/WEIZMANN/70/Slow_StraightLong(3)_stageii.npz
Output file: ../robot/ik_based/pkl/017726.pkl
Status: SKIPPED (ALREADY EXISTS)
==================================================

=== SKIPPED (ALREADY EXISTS) - 2025-10-14 20:54:33 ===
File index: 017727
Input file: /data/retarget/locomotion/raw/AMASS_SMPLXG/WEIZMANN/70/Slow_StraightLong(30)_stageii.npz
Output file: ../robot/ik_based/pkl/017727.pkl
Status: SKIPPED (ALREADY EXISTS)
==================================================

=== SKIPPED (ALREADY EXISTS) - 2025-10-14 20:54:33 ===
File index: 017728
Input file: /data/retarget/locomotion/raw/AMASS_SMPLXG/WEIZMANN/70/Slow_StraightLong(31)_stageii.npz
Output file: ../robot/ik_based/pkl/017728.pkl
Status: SKIPPED (ALREADY EXISTS)
==================================================

=== SKIPPED (ALREADY EXISTS) - 2025-10-14 20:54:33 ===
File index: 017729
Input file: /data/retarget/locomotion/raw/AMASS_SMPLXG/WEIZMANN/70/Slow_StraightLong(32)_stageii.npz
Output file: ../robot/ik_based/pkl/017729.pkl
Status: SKIPPED (ALREADY EXISTS)
==================================================

=== SKIPPED (ALREADY EXISTS) - 2025-10-14 20:54:33 ===
File index: 017730
Input file: /data/retarget/locomotion/raw/AMASS_SMPLXG/WEIZMANN/70/Slow_StraightLong(33)_stageii.npz
Output file: ../robot/ik_based/pkl/017730.pkl
Status: SKIPPED (ALREADY EXISTS)
==================================================

=== SKIPPED (ALREADY EXISTS) - 2025-10-14 20:54:33 ===
File index: 017731
Input file: /data/retarget/locomotion/raw/AMASS_SMPLXG/WEIZMANN/70/Slow_StraightLong(34)_stageii.npz
Output file: ../robot/ik_based/pkl/017731.pkl
Status: SKIPPED (ALREADY EXISTS)
==================================================

=== SKIPPED (ALREADY EXISTS) - 2025-10-14 20:54:33 ===
File index: 017732
Input file: /data/retarget/locomotion/raw/AMASS_SMPLXG/WEIZMANN/70/Slow_StraightLong(35)_stageii.npz
Output file: ../robot/ik_based/pkl/017732.pkl
Status: SKIPPED (ALREADY EXISTS)
==================================================

=== SKIPPED (ALREADY EXISTS) - 2025-10-14 20:54:33 ===
File index: 017733
Input file: /data/retarget/locomotion/raw/AMASS_SMPLXG/WEIZMANN/70/Slow_StraightLong(36)_stageii.npz
Output file: ../robot/ik_based/pkl/017733.pkl
Status: SKIPPED (ALREADY EXISTS)
==================================================

=== SKIPPED (ALREADY EXISTS) - 2025-10-14 20:54:33 ===
File index: 017734
Input file: /data/retarget/locomotion/raw/AMASS_SMPLXG/WEIZMANN/70/Slow_StraightLong(37)_stageii.npz
Output file: ../robot/ik_based/pkl/017734.pkl
Status: SKIPPED (ALREADY EXISTS)
==================================================

=== SKIPPED (ALREADY EXISTS) - 2025-10-14 20:54:33 ===
File index: 017735
Input file: /data/retarget/locomotion/raw/AMASS_SMPLXG/WEIZMANN/70/Slow_StraightLong(38)_stageii.npz
Output file: ../robot/ik_based/pkl/017735.pkl
Status: SKIPPED (ALREADY EXISTS)
==================================================

=== SKIPPED (ALREADY EXISTS) - 2025-10-14 20:54:33 ===
File index: 017736
Input file: /data/retarget/locomotion/raw/AMASS_SMPLXG/WEIZMANN/70/Slow_StraightLong(39)_stageii.npz
Output file: ../robot/ik_based/pkl/017736.pkl
Status: SKIPPED (ALREADY EXISTS)
==================================================

=== SKIPPED (ALREADY EXISTS) - 2025-10-14 20:54:33 ===
File index: 017737
Input file: /data/retarget/locomotion/raw/AMASS_SMPLXG/WEIZMANN/70/Slow_StraightLong(4)_stageii.npz
Output file: ../robot/ik_based/pkl/017737.pkl
Status: SKIPPED (ALREADY EXISTS)
==================================================

=== SKIPPED (ALREADY EXISTS) - 2025-10-14 20:54:33 ===
File index: 017738
Input file: /data/retarget/locomotion/raw/AMASS_SMPLXG/WEIZMANN/70/Slow_StraightLong(40)_stageii.npz
Output file: ../robot/ik_based/pkl/017738.pkl
Status: SKIPPED (ALREADY EXISTS)
==================================================

=== SKIPPED (ALREADY EXISTS) - 2025-10-14 20:54:33 ===
File index: 017739
Input file: /data/retarget/locomotion/raw/AMASS_SMPLXG/WEIZMANN/70/Slow_StraightLong(41)_stageii.npz
Output file: ../robot/ik_based/pkl/017739.pkl
Status: SKIPPED (ALREADY EXISTS)
==================================================

=== SKIPPED (ALREADY EXISTS) - 2025-10-14 20:54:33 ===
File index: 017740
Input file: /data/retarget/locomotion/raw/AMASS_SMPLXG/WEIZMANN/70/Slow_StraightLong(42)_stageii.npz
Output file: ../robot/ik_based/pkl/017740.pkl
Status: SKIPPED (ALREADY EXISTS)
==================================================

=== SKIPPED (ALREADY EXISTS) - 2025-10-14 20:54:33 ===
File index: 017741
Input file: /data/retarget/locomotion/raw/AMASS_SMPLXG/WEIZMANN/70/Slow_StraightLong(43)_stageii.npz
Output file: ../robot/ik_based/pkl/017741.pkl
Status: SKIPPED (ALREADY EXISTS)
==================================================

=== SKIPPED (ALREADY EXISTS) - 2025-10-14 20:54:33 ===
File index: 017742
Input file: /data/retarget/locomotion/raw/AMASS_SMPLXG/WEIZMANN/70/Slow_StraightLong(44)_stageii.npz
Output file: ../robot/ik_based/pkl/017742.pkl
Status: SKIPPED (ALREADY EXISTS)
==================================================

=== SKIPPED (ALREADY EXISTS) - 2025-10-14 20:54:33 ===
File index: 017743
Input file: /data/retarget/locomotion/raw/AMASS_SMPLXG/WEIZMANN/70/Slow_StraightLong(45)_stageii.npz
Output file: ../robot/ik_based/pkl/017743.pkl
Status: SKIPPED (ALREADY EXISTS)
==================================================

=== SKIPPED (ALREADY EXISTS) - 2025-10-14 20:54:33 ===
File index: 017744
Input file: /data/retarget/locomotion/raw/AMASS_SMPLXG/WEIZMANN/70/Slow_StraightLong(46)_stageii.npz
Output file: ../robot/ik_based/pkl/017744.pkl
Status: SKIPPED (ALREADY EXISTS)
==================================================

=== SKIPPED (ALREADY EXISTS) - 2025-10-14 20:54:33 ===
File index: 017745
Input file: /data/retarget/locomotion/raw/AMASS_SMPLXG/WEIZMANN/70/Slow_StraightLong(47)_stageii.npz
Output file: ../robot/ik_based/pkl/017745.pkl
Status: SKIPPED (ALREADY EXISTS)
==================================================

=== SKIPPED (ALREADY EXISTS) - 2025-10-14 20:54:33 ===
File index: 017746
Input file: /data/retarget/locomotion/raw/AMASS_SMPLXG/WEIZMANN/70/Slow_StraightLong(48)_stageii.npz
Output file: ../robot/ik_based/pkl/017746.pkl
Status: SKIPPED (ALREADY EXISTS)
==================================================

=== SKIPPED (ALREADY EXISTS) - 2025-10-14 20:54:33 ===
File index: 017747
Input file: /data/retarget/locomotion/raw/AMASS_SMPLXG/WEIZMANN/70/Slow_StraightLong(5)_stageii.npz
Output file: ../robot/ik_based/pkl/017747.pkl
Status: SKIPPED (ALREADY EXISTS)
==================================================

=== SKIPPED (ALREADY EXISTS) - 2025-10-14 20:54:33 ===
File index: 017748
Input file: /data/retarget/locomotion/raw/AMASS_SMPLXG/WEIZMANN/70/Slow_StraightLong(6)_stageii.npz
Output file: ../robot/ik_based/pkl/017748.pkl
Status: SKIPPED (ALREADY EXISTS)
==================================================

=== SKIPPED (ALREADY EXISTS) - 2025-10-14 20:54:33 ===
File index: 017749
Input file: /data/retarget/locomotion/raw/AMASS_SMPLXG/WEIZMANN/70/Slow_StraightLong(7)_stageii.npz
Output file: ../robot/ik_based/pkl/017749.pkl
Status: SKIPPED (ALREADY EXISTS)
==================================================

=== SKIPPED (ALREADY EXISTS) - 2025-10-14 20:54:33 ===
File index: 017750
Input file: /data/retarget/locomotion/raw/AMASS_SMPLXG/WEIZMANN/70/Slow_StraightLong(8)_stageii.npz
Output file: ../robot/ik_based/pkl/017750.pkl
Status: SKIPPED (ALREADY EXISTS)
==================================================

=== SKIPPED (ALREADY EXISTS) - 2025-10-14 20:54:33 ===
File index: 017751
Input file: /data/retarget/locomotion/raw/AMASS_SMPLXG/WEIZMANN/70/Slow_StraightLong(9)_stageii.npz
Output file: ../robot/ik_based/pkl/017751.pkl
Status: SKIPPED (ALREADY EXISTS)
==================================================

=== SKIPPED (ALREADY EXISTS) - 2025-10-14 20:54:33 ===
File index: 017752
Input file: /data/retarget/locomotion/raw/AMASS_SMPLXG/WEIZMANN/70/Slow_StraightShort(1)_stageii.npz
Output file: ../robot/ik_based/pkl/017752.pkl
Status: SKIPPED (ALREADY EXISTS)
==================================================

=== SKIPPED (ALREADY EXISTS) - 2025-10-14 20:54:33 ===
File index: 017753
Input file: /data/retarget/locomotion/raw/AMASS_SMPLXG/WEIZMANN/70/Slow_StraightShort(2)_stageii.npz
Output file: ../robot/ik_based/pkl/017753.pkl
Status: SKIPPED (ALREADY EXISTS)
==================================================

=== SKIPPED (ALREADY EXISTS) - 2025-10-14 20:54:33 ===
File index: 017754
Input file: /data/retarget/locomotion/raw/AMASS_SMPLXG/WEIZMANN/70/Slow_StraightShort(3)_stageii.npz
Output file: ../robot/ik_based/pkl/017754.pkl
Status: SKIPPED (ALREADY EXISTS)
==================================================

=== SKIPPED (ALREADY EXISTS) - 2025-10-14 20:54:33 ===
File index: 017755
Input file: /data/retarget/locomotion/raw/AMASS_SMPLXG/WEIZMANN/70/Slow_StraightShort(4)_stageii.npz
Output file: ../robot/ik_based/pkl/017755.pkl
Status: SKIPPED (ALREADY EXISTS)
==================================================

=== ERROR LOG - 2025-10-14 20:54:34 ===
Input file: /data/retarget/locomotion/raw/AMASS_SMPLXG/WEIZMANN/70/male_stagei.npz
Output file: ../robot/ik_based/pkl/017756.pkl
Robot type: unitree_g1
Processing time: 0.71 seconds
Error message: 'pose_body is not a file in the archive'
Error type: KeyError
==================================================

=== FILE FAILURE - 2025-10-14 20:54:34 ===
File index: 017756
File number: 1757/1757
Input file: /data/retarget/locomotion/raw/AMASS_SMPLXG/WEIZMANN/70/male_stagei.npz
Output file: ../robot/ik_based/pkl/017756.pkl
Processing time: 0.71 seconds
Total file time: 0.78 seconds
Status: FAILED
==================================================

=== FINAL STATISTICS - 2025-10-14 20:54:34 ===
Total files processed: 1757
Successful: 1753
Failed: 4
, Total processing time: 11939.17 seconds
 Total execution time: 12213.67 seconds
Average processing time per file: 6.81 seconds
Average frames per file: 320.3 frames (998 files with frames)
Total frames processed: 319,620 frames
==================================================
