
=== ERROR LOG - 2025-10-14 19:39:25 ===
Input file: /data/retarget/locomotion/raw/AMASS_SMPLXG/EKUT/234/male_stagei.npz
Output file: ../robot/ik_based/pkl/008011.pkl
Robot type: unitree_g1
Processing time: 0.97 seconds
Error message: 'pose_body is not a file in the archive'
Error type: KeyError
==================================================

=== ERROR LOG - 2025-10-14 19:39:25 ===
Input file: /data/retarget/locomotion/raw/AMASS_SMPLXG/EKUT/265/MTR03_stageii.npz
Output file: ../robot/ik_based/pkl/008024.pkl
Robot type: unitree_g1
Processing time: 0.91 seconds

STEP-BY-STEP TIMING (FAILED):
  Load Smplx: 0.90s
Error message: need at least one array to stack
Error type: ValueError
==================================================

=== ERROR LOG - 2025-10-14 19:39:25 ===
Input file: /data/retarget/locomotion/raw/AMASS_SMPLXG/EKUT/265/male_stagei.npz
Output file: ../robot/ik_based/pkl/008083.pkl
Robot type: unitree_g1
Processing time: 0.72 seconds
Error message: 'pose_body is not a file in the archive'
Error type: KeyError
==================================================

=== ERROR LOG - 2025-10-14 19:39:26 ===
Input file: /data/retarget/locomotion/raw/AMASS_SMPLXG/EKUT/300/male_stagei.npz
Output file: ../robot/ik_based/pkl/008219.pkl
Robot type: unitree_g1
Processing time: 0.79 seconds
Error message: 'pose_body is not a file in the archive'
Error type: KeyError
==================================================

=== ERROR LOG - 2025-10-14 19:39:27 ===
Input file: /data/retarget/locomotion/raw/AMASS_SMPLXG/Eyes_Japan_Dataset/aita/male_stagei.npz
Output file: ../robot/ik_based/pkl/008280.pkl
Robot type: unitree_g1
Processing time: 1.03 seconds
Error message: 'pose_body is not a file in the archive'
Error type: KeyError
==================================================

=== ERROR LOG - 2025-10-14 19:39:27 ===
Input file: /data/retarget/locomotion/raw/AMASS_SMPLXG/Eyes_Japan_Dataset/frederic/male_stagei.npz
Output file: ../robot/ik_based/pkl/008335.pkl
Robot type: unitree_g1
Processing time: 1.03 seconds
Error message: 'pose_body is not a file in the archive'
Error type: KeyError
==================================================

=== ERROR LOG - 2025-10-14 19:39:28 ===
Input file: /data/retarget/locomotion/raw/AMASS_SMPLXG/Eyes_Japan_Dataset/hamada/male_stagei.npz
Output file: ../robot/ik_based/pkl/008413.pkl
Robot type: unitree_g1
Processing time: 1.08 seconds
Error message: 'pose_body is not a file in the archive'
Error type: KeyError
==================================================

=== ERROR LOG - 2025-10-14 19:39:28 ===
Input file: /data/retarget/locomotion/raw/AMASS_SMPLXG/Eyes_Japan_Dataset/ichige/male_stagei.npz
Output file: ../robot/ik_based/pkl/008509.pkl
Robot type: unitree_g1
Processing time: 1.31 seconds
Error message: 'pose_body is not a file in the archive'
Error type: KeyError
==================================================

=== SUCCESS LOG - 2025-10-14 19:40:59 ===
Input file: /data/retarget/locomotion/raw/AMASS_SMPLXG/Eyes_Japan_Dataset/ichige/soccer-03-volley_kick-ichige_stageii.npz
Output file: ../robot/ik_based/pkl/008514.pkl
Robot type: unitree_g1
Processing time: 90.57 seconds

STEP-BY-STEP TIMING:
  Step 1 - Load SMPLX:        12.82s
  Step 2 - Align FPS:         11.05s
  Step 3 - Init Retarget:     1.11s
  Step 4 - Init Visualization: 0.00s
  Step 5 - Process Frames:    64.55s (avg: 0.078s/frame)
  Step 6 - Convert Arrays:    0.00s
  Step 7 - Forward Kinematics: 0.92s
  Step 8 - Save Data:         0.00s
Status: SUCCESS
==================================================

=== SUCCESS LOG - 2025-10-14 19:42:09 ===
Input file: /data/retarget/locomotion/raw/AMASS_SMPLXG/Eyes_Japan_Dataset/ichige/sitdown_standup-11-one_knee_drawn_up-ichige_stageii.npz
Output file: ../robot/ik_based/pkl/008513.pkl
Robot type: unitree_g1
Processing time: 160.82 seconds

STEP-BY-STEP TIMING:
  Step 1 - Load SMPLX:        15.34s
  Step 2 - Align FPS:         19.63s
  Step 3 - Init Retarget:     0.41s
  Step 4 - Init Visualization: 0.00s
  Step 5 - Process Frames:    124.88s (avg: 0.067s/frame)
  Step 6 - Convert Arrays:    0.01s
  Step 7 - Forward Kinematics: 0.51s
  Step 8 - Save Data:         0.00s
Status: SUCCESS
==================================================

=== SUCCESS LOG - 2025-10-14 19:42:09 ===
Input file: /data/retarget/locomotion/raw/AMASS_SMPLXG/Eyes_Japan_Dataset/ichige/soccer-06-pass_outside-ichige_stageii.npz
Output file: ../robot/ik_based/pkl/008515.pkl
Robot type: unitree_g1
Processing time: 69.63 seconds

STEP-BY-STEP TIMING:
  Step 1 - Load SMPLX:        2.80s
  Step 2 - Align FPS:         8.65s
  Step 3 - Init Retarget:     0.39s
  Step 4 - Init Visualization: 0.00s
  Step 5 - Process Frames:    57.44s (avg: 0.064s/frame)
  Step 6 - Convert Arrays:    0.00s
  Step 7 - Forward Kinematics: 0.32s
  Step 8 - Save Data:         0.00s
Status: SUCCESS
==================================================

=== SUCCESS LOG - 2025-10-14 19:43:23 ===
Input file: /data/retarget/locomotion/raw/AMASS_SMPLXG/Eyes_Japan_Dataset/ichige/soccer-28-pk_feint-ichige_stageii.npz
Output file: ../robot/ik_based/pkl/008519.pkl
Robot type: unitree_g1
Processing time: 72.40 seconds

STEP-BY-STEP TIMING:
  Step 1 - Load SMPLX:        2.25s
  Step 2 - Align FPS:         15.01s
  Step 3 - Init Retarget:     0.73s
  Step 4 - Init Visualization: 0.00s
  Step 5 - Process Frames:    53.97s (avg: 0.060s/frame)
  Step 6 - Convert Arrays:    0.01s
  Step 7 - Forward Kinematics: 0.23s
  Step 8 - Save Data:         0.01s
Status: SUCCESS
==================================================

=== SUCCESS LOG - 2025-10-14 19:43:29 ===
Input file: /data/retarget/locomotion/raw/AMASS_SMPLXG/Eyes_Japan_Dataset/ichige/soccer-27-pk_inside-ichige_stageii.npz
Output file: ../robot/ik_based/pkl/008518.pkl
Robot type: unitree_g1
Processing time: 79.05 seconds

STEP-BY-STEP TIMING:
  Step 1 - Load SMPLX:        3.04s
  Step 2 - Align FPS:         14.59s
  Step 3 - Init Retarget:     0.42s
  Step 4 - Init Visualization: 0.00s
  Step 5 - Process Frames:    60.73s (avg: 0.068s/frame)
  Step 6 - Convert Arrays:    0.00s
  Step 7 - Forward Kinematics: 0.12s
  Step 8 - Save Data:         0.01s
Status: SUCCESS
==================================================

=== SUCCESS LOG - 2025-10-14 19:44:34 ===
Input file: /data/retarget/locomotion/raw/AMASS_SMPLXG/Eyes_Japan_Dataset/ichige/soccer-29-heel_lift-ichige_stageii.npz
Output file: ../robot/ik_based/pkl/008520.pkl
Robot type: unitree_g1
Processing time: 70.03 seconds

STEP-BY-STEP TIMING:
  Step 1 - Load SMPLX:        3.14s
  Step 2 - Align FPS:         6.43s
  Step 3 - Init Retarget:     0.40s
  Step 4 - Init Visualization: 0.00s
  Step 5 - Process Frames:    59.75s (avg: 0.067s/frame)
  Step 6 - Convert Arrays:    0.00s
  Step 7 - Forward Kinematics: 0.15s
  Step 8 - Save Data:         0.00s
Status: SUCCESS
==================================================

=== SUCCESS LOG - 2025-10-14 19:45:00 ===
Input file: /data/retarget/locomotion/raw/AMASS_SMPLXG/Eyes_Japan_Dataset/ichige/soccer-31-goal-ichige_stageii.npz
Output file: ../robot/ik_based/pkl/008521.pkl
Robot type: unitree_g1
Processing time: 89.41 seconds

STEP-BY-STEP TIMING:
  Step 1 - Load SMPLX:        5.12s
  Step 2 - Align FPS:         9.46s
  Step 3 - Init Retarget:     0.32s
  Step 4 - Init Visualization: 0.00s
  Step 5 - Process Frames:    74.09s (avg: 0.083s/frame)
  Step 6 - Convert Arrays:    0.00s
  Step 7 - Forward Kinematics: 0.23s
  Step 8 - Save Data:         0.01s
Status: SUCCESS
==================================================

=== SUCCESS LOG - 2025-10-14 19:46:55 ===
Input file: /data/retarget/locomotion/raw/AMASS_SMPLXG/Eyes_Japan_Dataset/ichige/walk-07-moonwalk-ichige_stageii.npz
Output file: ../robot/ik_based/pkl/008522.pkl
Robot type: unitree_g1
Processing time: 140.31 seconds

STEP-BY-STEP TIMING:
  Step 1 - Load SMPLX:        4.40s
  Step 2 - Align FPS:         19.04s
  Step 3 - Init Retarget:     0.36s
  Step 4 - Init Visualization: 0.00s
  Step 5 - Process Frames:    116.17s (avg: 0.062s/frame)
  Step 6 - Convert Arrays:    0.01s
  Step 7 - Forward Kinematics: 0.18s
  Step 8 - Save Data:         0.01s
Status: SUCCESS
==================================================

=== SUCCESS LOG - 2025-10-14 19:47:06 ===
Input file: /data/retarget/locomotion/raw/AMASS_SMPLXG/Eyes_Japan_Dataset/ichige/walk-29-look_down-ichige_stageii.npz
Output file: ../robot/ik_based/pkl/008523.pkl
Robot type: unitree_g1
Processing time: 125.25 seconds

STEP-BY-STEP TIMING:
  Step 1 - Load SMPLX:        7.29s
  Step 2 - Align FPS:         18.27s
  Step 3 - Init Retarget:     0.32s
  Step 4 - Init Visualization: 0.00s
  Step 5 - Process Frames:    99.29s (avg: 0.053s/frame)
  Step 6 - Convert Arrays:    0.00s
  Step 7 - Forward Kinematics: 0.03s
  Step 8 - Save Data:         0.01s
Status: SUCCESS
==================================================

=== SUCCESS LOG - 2025-10-14 19:48:29 ===
Input file: /data/retarget/locomotion/raw/AMASS_SMPLXG/Eyes_Japan_Dataset/kaiwa/accident-03-damage_head-kaiwa_stageii.npz
Output file: ../robot/ik_based/pkl/008526.pkl
Robot type: unitree_g1
Processing time: 81.36 seconds

STEP-BY-STEP TIMING:
  Step 1 - Load SMPLX:        2.78s
  Step 2 - Align FPS:         8.85s
  Step 3 - Init Retarget:     0.24s
  Step 4 - Init Visualization: 0.00s
  Step 5 - Process Frames:    69.16s (avg: 0.077s/frame)
  Step 6 - Convert Arrays:    0.01s
  Step 7 - Forward Kinematics: 0.20s
  Step 8 - Save Data:         0.01s
Status: SUCCESS
==================================================

=== SUCCESS LOG - 2025-10-14 19:48:31 ===
Input file: /data/retarget/locomotion/raw/AMASS_SMPLXG/Eyes_Japan_Dataset/kaiwa/accident-02-dodge_fast-kaiwa_stageii.npz
Output file: ../robot/ik_based/pkl/008525.pkl
Robot type: unitree_g1
Processing time: 94.50 seconds

STEP-BY-STEP TIMING:
  Step 1 - Load SMPLX:        3.35s
  Step 2 - Align FPS:         7.59s
  Step 3 - Init Retarget:     0.23s
  Step 4 - Init Visualization: 0.00s
  Step 5 - Process Frames:    83.27s (avg: 0.093s/frame)
  Step 6 - Convert Arrays:    0.00s
  Step 7 - Forward Kinematics: 0.02s
  Step 8 - Save Data:         0.00s
Status: SUCCESS
==================================================

=== SUCCESS LOG - 2025-10-14 19:50:02 ===
Input file: /data/retarget/locomotion/raw/AMASS_SMPLXG/Eyes_Japan_Dataset/kaiwa/accident-05-damage_right_arm-kaiwa_stageii.npz
Output file: ../robot/ik_based/pkl/008528.pkl
Robot type: unitree_g1
Processing time: 92.98 seconds

STEP-BY-STEP TIMING:
  Step 1 - Load SMPLX:        3.44s
  Step 2 - Align FPS:         12.40s
  Step 3 - Init Retarget:     1.22s
  Step 4 - Init Visualization: 0.00s
  Step 5 - Process Frames:    75.53s (avg: 0.084s/frame)
  Step 6 - Convert Arrays:    0.00s
  Step 7 - Forward Kinematics: 0.21s
  Step 8 - Save Data:         0.05s
Status: SUCCESS
==================================================

=== SUCCESS LOG - 2025-10-14 19:50:03 ===
Input file: /data/retarget/locomotion/raw/AMASS_SMPLXG/Eyes_Japan_Dataset/kaiwa/accident-07-damage_left_arm-kaiwa_stageii.npz
Output file: ../robot/ik_based/pkl/008529.pkl
Robot type: unitree_g1
Processing time: 92.09 seconds

STEP-BY-STEP TIMING:
  Step 1 - Load SMPLX:        2.59s
  Step 2 - Align FPS:         12.63s
  Step 3 - Init Retarget:     0.30s
  Step 4 - Init Visualization: 0.00s
  Step 5 - Process Frames:    76.51s (avg: 0.085s/frame)
  Step 6 - Convert Arrays:    0.00s
  Step 7 - Forward Kinematics: 0.02s
  Step 8 - Save Data:         0.00s
Status: SUCCESS
==================================================

=== SUCCESS LOG - 2025-10-14 19:51:31 ===
Input file: /data/retarget/locomotion/raw/AMASS_SMPLXG/Eyes_Japan_Dataset/kaiwa/accident-09-damage_leftfoot-kaiwa_stageii.npz
Output file: ../robot/ik_based/pkl/008531.pkl
Robot type: unitree_g1
Processing time: 88.04 seconds

STEP-BY-STEP TIMING:
  Step 1 - Load SMPLX:        8.29s
  Step 2 - Align FPS:         10.90s
  Step 3 - Init Retarget:     0.42s
  Step 4 - Init Visualization: 0.00s
  Step 5 - Process Frames:    68.05s (avg: 0.076s/frame)
  Step 6 - Convert Arrays:    0.00s
  Step 7 - Forward Kinematics: 0.18s
  Step 8 - Save Data:         0.01s
Status: SUCCESS
==================================================

=== SUCCESS LOG - 2025-10-14 19:51:43 ===
Input file: /data/retarget/locomotion/raw/AMASS_SMPLXG/Eyes_Japan_Dataset/kaiwa/accident-10-spasm-kaiwa_stageii.npz
Output file: ../robot/ik_based/pkl/008532.pkl
Robot type: unitree_g1
Processing time: 98.72 seconds

STEP-BY-STEP TIMING:
  Step 1 - Load SMPLX:        10.43s
  Step 2 - Align FPS:         11.02s
  Step 3 - Init Retarget:     0.27s
  Step 4 - Init Visualization: 0.00s
  Step 5 - Process Frames:    76.93s (avg: 0.085s/frame)
  Step 6 - Convert Arrays:    0.00s
  Step 7 - Forward Kinematics: 0.02s
  Step 8 - Save Data:         0.01s
Status: SUCCESS
==================================================

=== SUCCESS LOG - 2025-10-14 19:52:35 ===
Input file: /data/retarget/locomotion/raw/AMASS_SMPLXG/Eyes_Japan_Dataset/kaiwa/accident-14-dodge_turn_down-kaiwa_stageii.npz
Output file: ../robot/ik_based/pkl/008535.pkl
Robot type: unitree_g1
Processing time: 52.29 seconds

STEP-BY-STEP TIMING:
  Step 1 - Load SMPLX:        2.96s
  Step 2 - Align FPS:         4.90s
  Step 3 - Init Retarget:     0.23s
  Step 4 - Init Visualization: 0.00s
  Step 5 - Process Frames:    43.86s (avg: 0.088s/frame)
  Step 6 - Convert Arrays:    0.00s
  Step 7 - Forward Kinematics: 0.18s
  Step 8 - Save Data:         0.01s
Status: SUCCESS
==================================================

=== SUCCESS LOG - 2025-10-14 19:52:51 ===
Input file: /data/retarget/locomotion/raw/AMASS_SMPLXG/Eyes_Japan_Dataset/kaiwa/accident-13-damage_back-kaiwa_stageii.npz
Output file: ../robot/ik_based/pkl/008534.pkl
Robot type: unitree_g1
Processing time: 79.13 seconds

STEP-BY-STEP TIMING:
  Step 1 - Load SMPLX:        3.17s
  Step 2 - Align FPS:         7.12s
  Step 3 - Init Retarget:     0.32s
  Step 4 - Init Visualization: 0.00s
  Step 5 - Process Frames:    68.17s (avg: 0.076s/frame)
  Step 6 - Convert Arrays:    0.00s
  Step 7 - Forward Kinematics: 0.14s
  Step 8 - Save Data:         0.01s
Status: SUCCESS
==================================================

=== ERROR LOG - 2025-10-14 19:52:53 ===
Input file: /data/retarget/locomotion/raw/AMASS_SMPLXG/Eyes_Japan_Dataset/kaiwa/female_stagei.npz
Output file: ../robot/ik_based/pkl/008538.pkl
Robot type: unitree_g1
Processing time: 1.50 seconds
Error message: 'pose_body is not a file in the archive'
Error type: KeyError
==================================================

=== SUCCESS LOG - 2025-10-14 19:53:58 ===
Input file: /data/retarget/locomotion/raw/AMASS_SMPLXG/Eyes_Japan_Dataset/kaiwa/gesture_etc-01-set_1-kaiwa_stageii.npz
Output file: ../robot/ik_based/pkl/008539.pkl
Robot type: unitree_g1
Processing time: 64.50 seconds

STEP-BY-STEP TIMING:
  Step 1 - Load SMPLX:        2.65s
  Step 2 - Align FPS:         9.29s
  Step 3 - Init Retarget:     0.28s
  Step 4 - Init Visualization: 0.00s
  Step 5 - Process Frames:    51.81s (avg: 0.058s/frame)
  Step 6 - Convert Arrays:    0.00s
  Step 7 - Forward Kinematics: 0.33s
  Step 8 - Save Data:         0.01s
Status: SUCCESS
==================================================

=== SUCCESS LOG - 2025-10-14 19:54:02 ===
Input file: /data/retarget/locomotion/raw/AMASS_SMPLXG/Eyes_Japan_Dataset/kaiwa/audience-02-standing_set_2-kaiwa_stageii.npz
Output file: ../robot/ik_based/pkl/008537.pkl
Robot type: unitree_g1
Processing time: 86.63 seconds

STEP-BY-STEP TIMING:
  Step 1 - Load SMPLX:        2.88s
  Step 2 - Align FPS:         7.01s
  Step 3 - Init Retarget:     0.23s
  Step 4 - Init Visualization: 0.00s
  Step 5 - Process Frames:    76.07s (avg: 0.085s/frame)
  Step 6 - Convert Arrays:    0.01s
  Step 7 - Forward Kinematics: 0.27s
  Step 8 - Save Data:         0.01s
Status: SUCCESS
==================================================

=== SUCCESS LOG - 2025-10-14 19:55:10 ===
Input file: /data/retarget/locomotion/raw/AMASS_SMPLXG/Eyes_Japan_Dataset/kaiwa/gesture_etc-05-touch_nose-kaiwa_stageii.npz
Output file: ../robot/ik_based/pkl/008541.pkl
Robot type: unitree_g1
Processing time: 67.20 seconds

STEP-BY-STEP TIMING:
  Step 1 - Load SMPLX:        5.68s
  Step 2 - Align FPS:         8.34s
  Step 3 - Init Retarget:     0.27s
  Step 4 - Init Visualization: 0.00s
  Step 5 - Process Frames:    52.50s (avg: 0.058s/frame)
  Step 6 - Convert Arrays:    0.00s
  Step 7 - Forward Kinematics: 0.19s
  Step 8 - Save Data:         0.00s
Status: SUCCESS
==================================================

=== SUCCESS LOG - 2025-10-14 19:55:20 ===
Input file: /data/retarget/locomotion/raw/AMASS_SMPLXG/Eyes_Japan_Dataset/kaiwa/gesture_etc-03-set_3-kaiwa_stageii.npz
Output file: ../robot/ik_based/pkl/008540.pkl
Robot type: unitree_g1
Processing time: 80.81 seconds

STEP-BY-STEP TIMING:
  Step 1 - Load SMPLX:        2.63s
  Step 2 - Align FPS:         6.11s
  Step 3 - Init Retarget:     0.40s
  Step 4 - Init Visualization: 0.00s
  Step 5 - Process Frames:    70.95s (avg: 0.079s/frame)
  Step 6 - Convert Arrays:    0.00s
  Step 7 - Forward Kinematics: 0.40s
  Step 8 - Save Data:         0.01s
Status: SUCCESS
==================================================

=== SUCCESS LOG - 2025-10-14 19:56:40 ===
Input file: /data/retarget/locomotion/raw/AMASS_SMPLXG/Eyes_Japan_Dataset/kaiwa/gesture_etc-07-over_stretch-kaiwa_stageii.npz
Output file: ../robot/ik_based/pkl/008543.pkl
Robot type: unitree_g1
Processing time: 89.46 seconds

STEP-BY-STEP TIMING:
  Step 1 - Load SMPLX:        3.47s
  Step 2 - Align FPS:         6.77s
  Step 3 - Init Retarget:     0.26s
  Step 4 - Init Visualization: 0.00s
  Step 5 - Process Frames:    78.63s (avg: 0.087s/frame)
  Step 6 - Convert Arrays:    0.00s
  Step 7 - Forward Kinematics: 0.18s
  Step 8 - Save Data:         0.01s
Status: SUCCESS
==================================================

=== SUCCESS LOG - 2025-10-14 19:56:41 ===
Input file: /data/retarget/locomotion/raw/AMASS_SMPLXG/Eyes_Japan_Dataset/kaiwa/gesture_etc-09-scratch-kaiwa_stageii.npz
Output file: ../robot/ik_based/pkl/008544.pkl
Robot type: unitree_g1
Processing time: 79.39 seconds

STEP-BY-STEP TIMING:
  Step 1 - Load SMPLX:        3.32s
  Step 2 - Align FPS:         8.81s
  Step 3 - Init Retarget:     0.27s
  Step 4 - Init Visualization: 0.00s
  Step 5 - Process Frames:    66.91s (avg: 0.074s/frame)
  Step 6 - Convert Arrays:    0.00s
  Step 7 - Forward Kinematics: 0.02s
  Step 8 - Save Data:         0.03s
Status: SUCCESS
==================================================

=== SUCCESS LOG - 2025-10-14 19:57:59 ===
Input file: /data/retarget/locomotion/raw/AMASS_SMPLXG/Eyes_Japan_Dataset/kaiwa/gesture_etc-22-mobile_receive-kaiwa_stageii.npz
Output file: ../robot/ik_based/pkl/008547.pkl
Robot type: unitree_g1
Processing time: 77.48 seconds

STEP-BY-STEP TIMING:
  Step 1 - Load SMPLX:        2.49s
  Step 2 - Align FPS:         11.24s
  Step 3 - Init Retarget:     0.49s
  Step 4 - Init Visualization: 0.01s
  Step 5 - Process Frames:    62.91s (avg: 0.070s/frame)
  Step 6 - Convert Arrays:    0.00s
  Step 7 - Forward Kinematics: 0.11s
  Step 8 - Save Data:         0.04s
Status: SUCCESS
==================================================

=== SUCCESS LOG - 2025-10-14 19:58:02 ===
Input file: /data/retarget/locomotion/raw/AMASS_SMPLXG/Eyes_Japan_Dataset/kaiwa/gesture_etc-18-eat-kaiwa_stageii.npz
Output file: ../robot/ik_based/pkl/008546.pkl
Robot type: unitree_g1
Processing time: 80.92 seconds

STEP-BY-STEP TIMING:
  Step 1 - Load SMPLX:        2.67s
  Step 2 - Align FPS:         10.09s
  Step 3 - Init Retarget:     1.47s
  Step 4 - Init Visualization: 0.00s
  Step 5 - Process Frames:    66.43s (avg: 0.074s/frame)
  Step 6 - Convert Arrays:    0.01s
  Step 7 - Forward Kinematics: 0.19s
  Step 8 - Save Data:         0.00s
Status: SUCCESS
==================================================

=== SUCCESS LOG - 2025-10-14 19:59:26 ===
Input file: /data/retarget/locomotion/raw/AMASS_SMPLXG/Eyes_Japan_Dataset/kaiwa/gesture_etc-25-magic-kaiwa_stageii.npz
Output file: ../robot/ik_based/pkl/008550.pkl
Robot type: unitree_g1
Processing time: 82.23 seconds

STEP-BY-STEP TIMING:
  Step 1 - Load SMPLX:        9.92s
  Step 2 - Align FPS:         14.41s
  Step 3 - Init Retarget:     0.78s
  Step 4 - Init Visualization: 0.00s
  Step 5 - Process Frames:    56.85s (avg: 0.063s/frame)
  Step 6 - Convert Arrays:    0.00s
  Step 7 - Forward Kinematics: 0.14s
  Step 8 - Save Data:         0.00s
Status: SUCCESS
==================================================

=== SUCCESS LOG - 2025-10-14 20:00:01 ===
Input file: /data/retarget/locomotion/raw/AMASS_SMPLXG/Eyes_Japan_Dataset/kaiwa/gesture_etc-24-matrix-kaiwa_stageii.npz
Output file: ../robot/ik_based/pkl/008549.pkl
Robot type: unitree_g1
Processing time: 120.78 seconds

STEP-BY-STEP TIMING:
  Step 1 - Load SMPLX:        12.25s
  Step 2 - Align FPS:         15.16s
  Step 3 - Init Retarget:     0.80s
  Step 4 - Init Visualization: 0.00s
  Step 5 - Process Frames:    92.19s (avg: 0.102s/frame)
  Step 6 - Convert Arrays:    0.00s
  Step 7 - Forward Kinematics: 0.17s
  Step 8 - Save Data:         0.01s
Status: SUCCESS
==================================================

=== SUCCESS LOG - 2025-10-14 20:00:35 ===
Input file: /data/retarget/locomotion/raw/AMASS_SMPLXG/Eyes_Japan_Dataset/kaiwa/gesture_etc-29-pantomime-kaiwa_stageii.npz
Output file: ../robot/ik_based/pkl/008551.pkl
Robot type: unitree_g1
Processing time: 68.48 seconds

STEP-BY-STEP TIMING:
  Step 1 - Load SMPLX:        2.92s
  Step 2 - Align FPS:         9.27s
  Step 3 - Init Retarget:     0.33s
  Step 4 - Init Visualization: 0.00s
  Step 5 - Process Frames:    55.72s (avg: 0.062s/frame)
  Step 6 - Convert Arrays:    0.00s
  Step 7 - Forward Kinematics: 0.12s
  Step 8 - Save Data:         0.00s
Status: SUCCESS
==================================================

=== SUCCESS LOG - 2025-10-14 20:01:13 ===
Input file: /data/retarget/locomotion/raw/AMASS_SMPLXG/Eyes_Japan_Dataset/kaiwa/gesture_etc-30-fxxk-kaiwa_stageii.npz
Output file: ../robot/ik_based/pkl/008552.pkl
Robot type: unitree_g1
Processing time: 70.81 seconds

STEP-BY-STEP TIMING:
  Step 1 - Load SMPLX:        3.77s
  Step 2 - Align FPS:         9.12s
  Step 3 - Init Retarget:     0.39s
  Step 4 - Init Visualization: 0.00s
  Step 5 - Process Frames:    57.20s (avg: 0.064s/frame)
  Step 6 - Convert Arrays:    0.01s
  Step 7 - Forward Kinematics: 0.17s
  Step 8 - Save Data:         0.01s
Status: SUCCESS
==================================================

=== SUCCESS LOG - 2025-10-14 20:02:09 ===
Input file: /data/retarget/locomotion/raw/AMASS_SMPLXG/Eyes_Japan_Dataset/kaiwa/gesture_etc-32-no-kaiwa_stageii.npz
Output file: ../robot/ik_based/pkl/008554.pkl
Robot type: unitree_g1
Processing time: 93.52 seconds

STEP-BY-STEP TIMING:
  Step 1 - Load SMPLX:        2.61s
  Step 2 - Align FPS:         9.25s
  Step 3 - Init Retarget:     0.27s
  Step 4 - Init Visualization: 0.00s
  Step 5 - Process Frames:    81.11s (avg: 0.090s/frame)
  Step 6 - Convert Arrays:    0.00s
  Step 7 - Forward Kinematics: 0.15s
  Step 8 - Save Data:         0.00s
Status: SUCCESS
==================================================

=== SUCCESS LOG - 2025-10-14 20:02:49 ===
Input file: /data/retarget/locomotion/raw/AMASS_SMPLXG/Eyes_Japan_Dataset/kaiwa/gesture_etc-33-watch_here-kaiwa_stageii.npz
Output file: ../robot/ik_based/pkl/008555.pkl
Robot type: unitree_g1
Processing time: 95.37 seconds

STEP-BY-STEP TIMING:
  Step 1 - Load SMPLX:        3.34s
  Step 2 - Align FPS:         9.56s
  Step 3 - Init Retarget:     0.24s
  Step 4 - Init Visualization: 0.00s
  Step 5 - Process Frames:    81.95s (avg: 0.091s/frame)
  Step 6 - Convert Arrays:    0.00s
  Step 7 - Forward Kinematics: 0.13s
  Step 8 - Save Data:         0.01s
Status: SUCCESS
==================================================

=== SUCCESS LOG - 2025-10-14 20:03:33 ===
Input file: /data/retarget/locomotion/raw/AMASS_SMPLXG/Eyes_Japan_Dataset/kaiwa/gesture_etc-34-peace-kaiwa_stageii.npz
Output file: ../robot/ik_based/pkl/008556.pkl
Robot type: unitree_g1
Processing time: 83.73 seconds

STEP-BY-STEP TIMING:
  Step 1 - Load SMPLX:        3.10s
  Step 2 - Align FPS:         9.81s
  Step 3 - Init Retarget:     0.34s
  Step 4 - Init Visualization: 0.00s
  Step 5 - Process Frames:    70.10s (avg: 0.078s/frame)
  Step 6 - Convert Arrays:    0.00s
  Step 7 - Forward Kinematics: 0.21s
  Step 8 - Save Data:         0.01s
Status: SUCCESS
==================================================

=== SUCCESS LOG - 2025-10-14 20:04:35 ===
Input file: /data/retarget/locomotion/raw/AMASS_SMPLXG/Eyes_Japan_Dataset/kaiwa/gesture_etc-35-west_side-kaiwa_stageii.npz
Output file: ../robot/ik_based/pkl/008557.pkl
Robot type: unitree_g1
Processing time: 106.21 seconds

STEP-BY-STEP TIMING:
  Step 1 - Load SMPLX:        2.79s
  Step 2 - Align FPS:         9.53s
  Step 3 - Init Retarget:     0.31s
  Step 4 - Init Visualization: 0.00s
  Step 5 - Process Frames:    93.21s (avg: 0.104s/frame)
  Step 6 - Convert Arrays:    0.00s
  Step 7 - Forward Kinematics: 0.18s
  Step 8 - Save Data:         0.01s
Status: SUCCESS
==================================================

=== SUCCESS LOG - 2025-10-14 20:04:39 ===
Input file: /data/retarget/locomotion/raw/AMASS_SMPLXG/Eyes_Japan_Dataset/kaiwa/gesture_etc-38-hand_language-kaiwa_stageii.npz
Output file: ../robot/ik_based/pkl/008559.pkl
Robot type: unitree_g1
Processing time: 65.39 seconds

STEP-BY-STEP TIMING:
  Step 1 - Load SMPLX:        2.94s
  Step 2 - Align FPS:         9.57s
  Step 3 - Init Retarget:     0.38s
  Step 4 - Init Visualization: 0.00s
  Step 5 - Process Frames:    52.43s (avg: 0.058s/frame)
  Step 6 - Convert Arrays:    0.00s
  Step 7 - Forward Kinematics: 0.03s
  Step 8 - Save Data:         0.00s
Status: SUCCESS
==================================================

=== SUCCESS LOG - 2025-10-14 20:05:55 ===
Input file: /data/retarget/locomotion/raw/AMASS_SMPLXG/Eyes_Japan_Dataset/kaiwa/gesture_etc-40-head_banging-kaiwa_stageii.npz
Output file: ../robot/ik_based/pkl/008561.pkl
Robot type: unitree_g1
Processing time: 78.41 seconds

STEP-BY-STEP TIMING:
  Step 1 - Load SMPLX:        3.49s
  Step 2 - Align FPS:         6.12s
  Step 3 - Init Retarget:     0.38s
  Step 4 - Init Visualization: 0.00s
  Step 5 - Process Frames:    68.14s (avg: 0.076s/frame)
  Step 6 - Convert Arrays:    0.02s
  Step 7 - Forward Kinematics: 0.11s
  Step 8 - Save Data:         0.02s
Status: SUCCESS
==================================================

=== SUCCESS LOG - 2025-10-14 20:06:11 ===
Input file: /data/retarget/locomotion/raw/AMASS_SMPLXG/Eyes_Japan_Dataset/kaiwa/gesture_etc-41-mosh-kaiwa_stageii.npz
Output file: ../robot/ik_based/pkl/008562.pkl
Robot type: unitree_g1
Processing time: 91.51 seconds

STEP-BY-STEP TIMING:
  Step 1 - Load SMPLX:        6.87s
  Step 2 - Align FPS:         9.08s
  Step 3 - Init Retarget:     0.25s
  Step 4 - Init Visualization: 0.00s
  Step 5 - Process Frames:    73.79s (avg: 0.082s/frame)
  Step 6 - Convert Arrays:    0.00s
  Step 7 - Forward Kinematics: 1.47s
  Step 8 - Save Data:         0.00s
Status: SUCCESS
==================================================

=== SUCCESS LOG - 2025-10-14 20:07:08 ===
Input file: /data/retarget/locomotion/raw/AMASS_SMPLXG/Eyes_Japan_Dataset/kaiwa/gesture_etc-42-hung_over-kaiwa_stageii.npz
Output file: ../robot/ik_based/pkl/008563.pkl
Robot type: unitree_g1
Processing time: 72.09 seconds

STEP-BY-STEP TIMING:
  Step 1 - Load SMPLX:        6.30s
  Step 2 - Align FPS:         9.18s
  Step 3 - Init Retarget:     0.21s
  Step 4 - Init Visualization: 0.00s
  Step 5 - Process Frames:    55.99s (avg: 0.062s/frame)
  Step 6 - Convert Arrays:    0.01s
  Step 7 - Forward Kinematics: 0.25s
  Step 8 - Save Data:         0.01s
Status: SUCCESS
==================================================

=== SUCCESS LOG - 2025-10-14 20:07:23 ===
Input file: /data/retarget/locomotion/raw/AMASS_SMPLXG/Eyes_Japan_Dataset/kaiwa/gesture_etc-43-brush_teeth-kaiwa_stageii.npz
Output file: ../robot/ik_based/pkl/008564.pkl
Robot type: unitree_g1
Processing time: 71.31 seconds

STEP-BY-STEP TIMING:
  Step 1 - Load SMPLX:        2.83s
  Step 2 - Align FPS:         7.86s
  Step 3 - Init Retarget:     0.21s
  Step 4 - Init Visualization: 0.00s
  Step 5 - Process Frames:    60.14s (avg: 0.067s/frame)
  Step 6 - Convert Arrays:    0.00s
  Step 7 - Forward Kinematics: 0.12s
  Step 8 - Save Data:         0.01s
Status: SUCCESS
==================================================

=== SUCCESS LOG - 2025-10-14 20:08:42 ===
Input file: /data/retarget/locomotion/raw/AMASS_SMPLXG/Eyes_Japan_Dataset/kaiwa/gesture_etc-46-vomit_of_blood-kaiwa_stageii.npz
Output file: ../robot/ik_based/pkl/008566.pkl
Robot type: unitree_g1
Processing time: 78.64 seconds

STEP-BY-STEP TIMING:
  Step 1 - Load SMPLX:        2.78s
  Step 2 - Align FPS:         9.98s
  Step 3 - Init Retarget:     0.23s
  Step 4 - Init Visualization: 0.00s
  Step 5 - Process Frames:    65.36s (avg: 0.073s/frame)
  Step 6 - Convert Arrays:    0.00s
  Step 7 - Forward Kinematics: 0.25s
  Step 8 - Save Data:         0.00s
Status: SUCCESS
==================================================

=== SUCCESS LOG - 2025-10-14 20:08:43 ===
Input file: /data/retarget/locomotion/raw/AMASS_SMPLXG/Eyes_Japan_Dataset/kaiwa/gesture_etc-45-feel_dizzy_-kaiwa_stageii.npz
Output file: ../robot/ik_based/pkl/008565.pkl
Robot type: unitree_g1
Processing time: 93.81 seconds

STEP-BY-STEP TIMING:
  Step 1 - Load SMPLX:        4.51s
  Step 2 - Align FPS:         9.41s
  Step 3 - Init Retarget:     0.18s
  Step 4 - Init Visualization: 0.00s
  Step 5 - Process Frames:    79.09s (avg: 0.088s/frame)
  Step 6 - Convert Arrays:    0.00s
  Step 7 - Forward Kinematics: 0.34s
  Step 8 - Save Data:         0.01s
Status: SUCCESS
==================================================

=== SUCCESS LOG - 2025-10-14 20:10:08 ===
Input file: /data/retarget/locomotion/raw/AMASS_SMPLXG/Eyes_Japan_Dataset/kaiwa/gesture_etc-49-taiko_under-kaiwa_stageii.npz
Output file: ../robot/ik_based/pkl/008569.pkl
Robot type: unitree_g1
Processing time: 84.67 seconds

STEP-BY-STEP TIMING:
  Step 1 - Load SMPLX:        5.62s
  Step 2 - Align FPS:         11.35s
  Step 3 - Init Retarget:     0.29s
  Step 4 - Init Visualization: 0.00s
  Step 5 - Process Frames:    67.14s (avg: 0.075s/frame)
  Step 6 - Convert Arrays:    0.00s
  Step 7 - Forward Kinematics: 0.13s
  Step 8 - Save Data:         0.01s
Status: SUCCESS
==================================================

=== SUCCESS LOG - 2025-10-14 20:10:14 ===
Input file: /data/retarget/locomotion/raw/AMASS_SMPLXG/Eyes_Japan_Dataset/kaiwa/gesture_etc-48-medium_drum-kaiwa_stageii.npz
Output file: ../robot/ik_based/pkl/008568.pkl
Robot type: unitree_g1
Processing time: 90.50 seconds

STEP-BY-STEP TIMING:
  Step 1 - Load SMPLX:        2.86s
  Step 2 - Align FPS:         10.01s
  Step 3 - Init Retarget:     0.41s
  Step 4 - Init Visualization: 0.00s
  Step 5 - Process Frames:    76.62s (avg: 0.085s/frame)
  Step 6 - Convert Arrays:    0.00s
  Step 7 - Forward Kinematics: 0.22s
  Step 8 - Save Data:         0.05s
Status: SUCCESS
==================================================

=== SUCCESS LOG - 2025-10-14 20:11:25 ===
Input file: /data/retarget/locomotion/raw/AMASS_SMPLXG/Eyes_Japan_Dataset/kaiwa/greeting-02-bye-kaiwa_stageii.npz
Output file: ../robot/ik_based/pkl/008571.pkl
Robot type: unitree_g1
Processing time: 75.56 seconds

STEP-BY-STEP TIMING:
  Step 1 - Load SMPLX:        3.35s
  Step 2 - Align FPS:         6.36s
  Step 3 - Init Retarget:     0.56s
  Step 4 - Init Visualization: 0.00s
  Step 5 - Process Frames:    64.97s (avg: 0.072s/frame)
  Step 6 - Convert Arrays:    0.00s
  Step 7 - Forward Kinematics: 0.15s
  Step 8 - Save Data:         0.01s
Status: SUCCESS
==================================================

=== SUCCESS LOG - 2025-10-14 20:11:26 ===
Input file: /data/retarget/locomotion/raw/AMASS_SMPLXG/Eyes_Japan_Dataset/kaiwa/greeting-03-election-kaiwa_stageii.npz
Output file: ../robot/ik_based/pkl/008572.pkl
Robot type: unitree_g1
Processing time: 71.29 seconds

STEP-BY-STEP TIMING:
  Step 1 - Load SMPLX:        4.58s
  Step 2 - Align FPS:         9.57s
  Step 3 - Init Retarget:     0.39s
  Step 4 - Init Visualization: 0.00s
  Step 5 - Process Frames:    56.68s (avg: 0.063s/frame)
  Step 6 - Convert Arrays:    0.00s
  Step 7 - Forward Kinematics: 0.03s
  Step 8 - Save Data:         0.00s
Status: SUCCESS
==================================================

=== SUCCESS LOG - 2025-10-14 20:12:40 ===
Input file: /data/retarget/locomotion/raw/AMASS_SMPLXG/Eyes_Japan_Dataset/kaiwa/greeting-05-salute_(chest)-kaiwa_stageii.npz
Output file: ../robot/ik_based/pkl/008574.pkl
Robot type: unitree_g1
Processing time: 74.57 seconds

STEP-BY-STEP TIMING:
  Step 1 - Load SMPLX:        3.15s
  Step 2 - Align FPS:         11.06s
  Step 3 - Init Retarget:     1.51s
  Step 4 - Init Visualization: 0.00s
  Step 5 - Process Frames:    58.48s (avg: 0.065s/frame)
  Step 6 - Convert Arrays:    0.01s
  Step 7 - Forward Kinematics: 0.19s
  Step 8 - Save Data:         0.01s
Status: SUCCESS
==================================================

=== SUCCESS LOG - 2025-10-14 20:12:40 ===
Input file: /data/retarget/locomotion/raw/AMASS_SMPLXG/Eyes_Japan_Dataset/kaiwa/greeting-07-bow-kaiwa_stageii.npz
Output file: ../robot/ik_based/pkl/008575.pkl
Robot type: unitree_g1
Processing time: 73.27 seconds

STEP-BY-STEP TIMING:
  Step 1 - Load SMPLX:        2.89s
  Step 2 - Align FPS:         11.18s
  Step 3 - Init Retarget:     0.27s
  Step 4 - Init Visualization: 0.00s
  Step 5 - Process Frames:    58.88s (avg: 0.065s/frame)
  Step 6 - Convert Arrays:    0.00s
  Step 7 - Forward Kinematics: 0.02s
  Step 8 - Save Data:         0.00s
Status: SUCCESS
==================================================

=== SUCCESS LOG - 2025-10-14 20:13:55 ===
Input file: /data/retarget/locomotion/raw/AMASS_SMPLXG/Eyes_Japan_Dataset/kaiwa/greeting-09-certificate-kaiwa_stageii.npz
Output file: ../robot/ik_based/pkl/008577.pkl
Robot type: unitree_g1
Processing time: 74.93 seconds

STEP-BY-STEP TIMING:
  Step 1 - Load SMPLX:        3.57s
  Step 2 - Align FPS:         12.03s
  Step 3 - Init Retarget:     1.12s
  Step 4 - Init Visualization: 0.00s
  Step 5 - Process Frames:    57.84s (avg: 0.064s/frame)
  Step 6 - Convert Arrays:    0.00s
  Step 7 - Forward Kinematics: 0.15s
  Step 8 - Save Data:         0.01s
Status: SUCCESS
==================================================

=== SUCCESS LOG - 2025-10-14 20:13:57 ===
Input file: /data/retarget/locomotion/raw/AMASS_SMPLXG/Eyes_Japan_Dataset/kaiwa/jump-01-normal-kaiwa_stageii.npz
Output file: ../robot/ik_based/pkl/008578.pkl
Robot type: unitree_g1
Processing time: 76.53 seconds

STEP-BY-STEP TIMING:
  Step 1 - Load SMPLX:        3.39s
  Step 2 - Align FPS:         13.67s
  Step 3 - Init Retarget:     0.23s
  Step 4 - Init Visualization: 0.00s
  Step 5 - Process Frames:    59.18s (avg: 0.066s/frame)
  Step 6 - Convert Arrays:    0.00s
  Step 7 - Forward Kinematics: 0.03s
  Step 8 - Save Data:         0.00s
Status: SUCCESS
==================================================

=== SUCCESS LOG - 2025-10-14 20:15:17 ===
Input file: /data/retarget/locomotion/raw/AMASS_SMPLXG/Eyes_Japan_Dataset/kaiwa/jump-02-leap-kaiwa_stageii.npz
Output file: ../robot/ik_based/pkl/008579.pkl
Robot type: unitree_g1
Processing time: 80.99 seconds

STEP-BY-STEP TIMING:
  Step 1 - Load SMPLX:        3.19s
  Step 2 - Align FPS:         12.33s
  Step 3 - Init Retarget:     1.23s
  Step 4 - Init Visualization: 0.02s
  Step 5 - Process Frames:    63.87s (avg: 0.071s/frame)
  Step 6 - Convert Arrays:    0.00s
  Step 7 - Forward Kinematics: 0.11s
  Step 8 - Save Data:         0.00s
Status: SUCCESS
==================================================

=== SUCCESS LOG - 2025-10-14 20:15:23 ===
Input file: /data/retarget/locomotion/raw/AMASS_SMPLXG/Eyes_Japan_Dataset/kaiwa/jump-03-vertical-kaiwa_stageii.npz
Output file: ../robot/ik_based/pkl/008580.pkl
Robot type: unitree_g1
Processing time: 84.56 seconds

STEP-BY-STEP TIMING:
  Step 1 - Load SMPLX:        2.53s
  Step 2 - Align FPS:         12.96s
  Step 3 - Init Retarget:     0.27s
  Step 4 - Init Visualization: 0.00s
  Step 5 - Process Frames:    68.74s (avg: 0.076s/frame)
  Step 6 - Convert Arrays:    0.00s
  Step 7 - Forward Kinematics: 0.03s
  Step 8 - Save Data:         0.00s
Status: SUCCESS
==================================================

=== SUCCESS LOG - 2025-10-14 20:16:48 ===
Input file: /data/retarget/locomotion/raw/AMASS_SMPLXG/Eyes_Japan_Dataset/kaiwa/jump-13-matrix-kaiwa_stageii.npz
Output file: ../robot/ik_based/pkl/008583.pkl
Robot type: unitree_g1
Processing time: 84.39 seconds

STEP-BY-STEP TIMING:
  Step 1 - Load SMPLX:        2.33s
  Step 2 - Align FPS:         13.07s
  Step 3 - Init Retarget:     0.21s
  Step 4 - Init Visualization: 0.00s
  Step 5 - Process Frames:    68.50s (avg: 0.076s/frame)
  Step 6 - Convert Arrays:    0.00s
  Step 7 - Forward Kinematics: 0.15s
  Step 8 - Save Data:         0.00s
Status: SUCCESS
==================================================

=== SUCCESS LOG - 2025-10-14 20:16:49 ===
Input file: /data/retarget/locomotion/raw/AMASS_SMPLXG/Eyes_Japan_Dataset/kaiwa/jump-11-warmup-kaiwa_stageii.npz
Output file: ../robot/ik_based/pkl/008582.pkl
Robot type: unitree_g1
Processing time: 90.82 seconds

STEP-BY-STEP TIMING:
  Step 1 - Load SMPLX:        5.60s
  Step 2 - Align FPS:         11.18s
  Step 3 - Init Retarget:     0.25s
  Step 4 - Init Visualization: 0.00s
  Step 5 - Process Frames:    73.74s (avg: 0.082s/frame)
  Step 6 - Convert Arrays:    0.00s
  Step 7 - Forward Kinematics: 0.02s
  Step 8 - Save Data:         0.00s
Status: SUCCESS
==================================================

=== SUCCESS LOG - 2025-10-14 20:18:04 ===
Input file: /data/retarget/locomotion/raw/AMASS_SMPLXG/Eyes_Japan_Dataset/kaiwa/pain-01-headache-kaiwa_stageii.npz
Output file: ../robot/ik_based/pkl/008584.pkl
Robot type: unitree_g1
Processing time: 76.05 seconds

STEP-BY-STEP TIMING:
  Step 1 - Load SMPLX:        2.96s
  Step 2 - Align FPS:         11.28s
  Step 3 - Init Retarget:     0.37s
  Step 4 - Init Visualization: 0.00s
  Step 5 - Process Frames:    61.06s (avg: 0.068s/frame)
  Step 6 - Convert Arrays:    0.01s
  Step 7 - Forward Kinematics: 0.13s
  Step 8 - Save Data:         0.01s
Status: SUCCESS
==================================================

=== SUCCESS LOG - 2025-10-14 20:18:08 ===
Input file: /data/retarget/locomotion/raw/AMASS_SMPLXG/Eyes_Japan_Dataset/kaiwa/pain-03-toothache-kaiwa_stageii.npz
Output file: ../robot/ik_based/pkl/008585.pkl
Robot type: unitree_g1
Processing time: 78.47 seconds

STEP-BY-STEP TIMING:
  Step 1 - Load SMPLX:        2.56s
  Step 2 - Align FPS:         13.03s
  Step 3 - Init Retarget:     0.21s
  Step 4 - Init Visualization: 0.00s
  Step 5 - Process Frames:    62.61s (avg: 0.070s/frame)
  Step 6 - Convert Arrays:    0.00s
  Step 7 - Forward Kinematics: 0.03s
  Step 8 - Save Data:         0.00s
Status: SUCCESS
==================================================

=== SUCCESS LOG - 2025-10-14 20:19:34 ===
Input file: /data/retarget/locomotion/raw/AMASS_SMPLXG/Eyes_Japan_Dataset/kaiwa/pose-01-normal-kaiwa_stageii.npz
Output file: ../robot/ik_based/pkl/008587.pkl
Robot type: unitree_g1
Processing time: 88.15 seconds

STEP-BY-STEP TIMING:
  Step 1 - Load SMPLX:        4.10s
  Step 2 - Align FPS:         5.81s
  Step 3 - Init Retarget:     0.50s
  Step 4 - Init Visualization: 0.00s
  Step 5 - Process Frames:    77.45s (avg: 0.086s/frame)
  Step 6 - Convert Arrays:    0.00s
  Step 7 - Forward Kinematics: 0.17s
  Step 8 - Save Data:         0.01s
Status: SUCCESS
==================================================

=== SUCCESS LOG - 2025-10-14 20:19:45 ===
Input file: /data/retarget/locomotion/raw/AMASS_SMPLXG/Eyes_Japan_Dataset/kaiwa/pose-02-rest-kaiwa_stageii.npz
Output file: ../robot/ik_based/pkl/008588.pkl
Robot type: unitree_g1
Processing time: 95.65 seconds

STEP-BY-STEP TIMING:
  Step 1 - Load SMPLX:        5.29s
  Step 2 - Align FPS:         9.46s
  Step 3 - Init Retarget:     0.29s
  Step 4 - Init Visualization: 0.00s
  Step 5 - Process Frames:    78.91s (avg: 0.088s/frame)
  Step 6 - Convert Arrays:    0.00s
  Step 7 - Forward Kinematics: 0.04s
  Step 8 - Save Data:         0.00s
Status: SUCCESS
==================================================

=== SUCCESS LOG - 2025-10-14 20:20:55 ===
Input file: /data/retarget/locomotion/raw/AMASS_SMPLXG/Eyes_Japan_Dataset/kaiwa/pose-03-open_leg-kaiwa_stageii.npz
Output file: ../robot/ik_based/pkl/008589.pkl
Robot type: unitree_g1
Processing time: 80.64 seconds

STEP-BY-STEP TIMING:
  Step 1 - Load SMPLX:        2.98s
  Step 2 - Align FPS:         7.62s
  Step 3 - Init Retarget:     0.25s
  Step 4 - Init Visualization: 0.00s
  Step 5 - Process Frames:    69.53s (avg: 0.077s/frame)
  Step 6 - Convert Arrays:    0.00s
  Step 7 - Forward Kinematics: 0.14s
  Step 8 - Save Data:         0.01s
Status: SUCCESS
==================================================

=== SUCCESS LOG - 2025-10-14 20:21:19 ===
Input file: /data/retarget/locomotion/raw/AMASS_SMPLXG/Eyes_Japan_Dataset/kaiwa/pose-04-drank-kaiwa_stageii.npz
Output file: ../robot/ik_based/pkl/008590.pkl
Robot type: unitree_g1
Processing time: 93.14 seconds

STEP-BY-STEP TIMING:
  Step 1 - Load SMPLX:        2.99s
  Step 2 - Align FPS:         9.41s
  Step 3 - Init Retarget:     0.23s
  Step 4 - Init Visualization: 0.00s
  Step 5 - Process Frames:    80.24s (avg: 0.089s/frame)
  Step 6 - Convert Arrays:    0.00s
  Step 7 - Forward Kinematics: 0.14s
  Step 8 - Save Data:         0.01s
Status: SUCCESS
==================================================

=== SUCCESS LOG - 2025-10-14 20:22:30 ===
Input file: /data/retarget/locomotion/raw/AMASS_SMPLXG/Eyes_Japan_Dataset/kaiwa/pose-06-hangon-kaiwa_stageii.npz
Output file: ../robot/ik_based/pkl/008592.pkl
Robot type: unitree_g1
Processing time: 94.18 seconds

STEP-BY-STEP TIMING:
  Step 1 - Load SMPLX:        2.81s
  Step 2 - Align FPS:         8.62s
  Step 3 - Init Retarget:     0.31s
  Step 4 - Init Visualization: 0.00s
  Step 5 - Process Frames:    82.09s (avg: 0.091s/frame)
  Step 6 - Convert Arrays:    0.00s
  Step 7 - Forward Kinematics: 0.19s
  Step 8 - Save Data:         0.01s
Status: SUCCESS
==================================================

=== SUCCESS LOG - 2025-10-14 20:22:31 ===
Input file: /data/retarget/locomotion/raw/AMASS_SMPLXG/Eyes_Japan_Dataset/kaiwa/pose-08-pray_buddhismintone-kaiwa_stageii.npz
Output file: ../robot/ik_based/pkl/008593.pkl
Robot type: unitree_g1
Processing time: 71.88 seconds

STEP-BY-STEP TIMING:
  Step 1 - Load SMPLX:        2.79s
  Step 2 - Align FPS:         8.36s
  Step 3 - Init Retarget:     0.22s
  Step 4 - Init Visualization: 0.00s
  Step 5 - Process Frames:    60.40s (avg: 0.067s/frame)
  Step 6 - Convert Arrays:    0.00s
  Step 7 - Forward Kinematics: 0.03s
  Step 8 - Save Data:         0.00s
Status: SUCCESS
==================================================

=== SUCCESS LOG - 2025-10-14 20:24:03 ===
Input file: /data/retarget/locomotion/raw/AMASS_SMPLXG/Eyes_Japan_Dataset/kaiwa/pose-10-recall_blackmagic-kaiwa_stageii.npz
Output file: ../robot/ik_based/pkl/008595.pkl
Robot type: unitree_g1
Processing time: 91.80 seconds

STEP-BY-STEP TIMING:
  Step 1 - Load SMPLX:        2.67s
  Step 2 - Align FPS:         11.47s
  Step 3 - Init Retarget:     1.52s
  Step 4 - Init Visualization: 0.00s
  Step 5 - Process Frames:    75.80s (avg: 0.084s/frame)
  Step 6 - Convert Arrays:    0.00s
  Step 7 - Forward Kinematics: 0.18s
  Step 8 - Save Data:         0.01s
Status: SUCCESS
==================================================

=== SUCCESS LOG - 2025-10-14 20:24:19 ===
Input file: /data/retarget/locomotion/raw/AMASS_SMPLXG/Eyes_Japan_Dataset/kaiwa/pose-11-bended_knees-kaiwa_stageii.npz
Output file: ../robot/ik_based/pkl/008596.pkl
Robot type: unitree_g1
Processing time: 106.19 seconds

STEP-BY-STEP TIMING:
  Step 1 - Load SMPLX:        2.29s
  Step 2 - Align FPS:         12.00s
  Step 3 - Init Retarget:     0.23s
  Step 4 - Init Visualization: 0.00s
  Step 5 - Process Frames:    91.28s (avg: 0.101s/frame)
  Step 6 - Convert Arrays:    0.00s
  Step 7 - Forward Kinematics: 0.22s
  Step 8 - Save Data:         0.01s
Status: SUCCESS
==================================================

=== SUCCESS LOG - 2025-10-14 20:25:36 ===
Input file: /data/retarget/locomotion/raw/AMASS_SMPLXG/Eyes_Japan_Dataset/kaiwa/pose-12-body_building-kaiwa_stageii.npz
Output file: ../robot/ik_based/pkl/008597.pkl
Robot type: unitree_g1
Processing time: 92.05 seconds

STEP-BY-STEP TIMING:
  Step 1 - Load SMPLX:        2.66s
  Step 2 - Align FPS:         8.26s
  Step 3 - Init Retarget:     0.37s
  Step 4 - Init Visualization: 0.00s
  Step 5 - Process Frames:    80.38s (avg: 0.089s/frame)
  Step 6 - Convert Arrays:    0.00s
  Step 7 - Forward Kinematics: 0.21s
  Step 8 - Save Data:         0.01s
Status: SUCCESS
==================================================

=== SUCCESS LOG - 2025-10-14 20:25:40 ===
Input file: /data/retarget/locomotion/raw/AMASS_SMPLXG/Eyes_Japan_Dataset/kaiwa/pose-13-model-kaiwa_stageii.npz
Output file: ../robot/ik_based/pkl/008598.pkl
Robot type: unitree_g1
Processing time: 81.22 seconds

STEP-BY-STEP TIMING:
  Step 1 - Load SMPLX:        2.76s
  Step 2 - Align FPS:         8.68s
  Step 3 - Init Retarget:     0.28s
  Step 4 - Init Visualization: 0.00s
  Step 5 - Process Frames:    68.81s (avg: 0.076s/frame)
  Step 6 - Convert Arrays:    0.00s
  Step 7 - Forward Kinematics: 0.28s
  Step 8 - Save Data:         0.05s
Status: SUCCESS
==================================================

=== SUCCESS LOG - 2025-10-14 20:26:55 ===
Input file: /data/retarget/locomotion/raw/AMASS_SMPLXG/Eyes_Japan_Dataset/kaiwa/pose-15-look_down-kaiwa_stageii.npz
Output file: ../robot/ik_based/pkl/008600.pkl
Robot type: unitree_g1
Processing time: 78.41 seconds

STEP-BY-STEP TIMING:
  Step 1 - Load SMPLX:        3.04s
  Step 2 - Align FPS:         6.33s
  Step 3 - Init Retarget:     0.28s
  Step 4 - Init Visualization: 0.00s
  Step 5 - Process Frames:    68.38s (avg: 0.076s/frame)
  Step 6 - Convert Arrays:    0.00s
  Step 7 - Forward Kinematics: 0.19s
  Step 8 - Save Data:         0.01s
Status: SUCCESS
==================================================

=== SUCCESS LOG - 2025-10-14 20:27:07 ===
Input file: /data/retarget/locomotion/raw/AMASS_SMPLXG/Eyes_Japan_Dataset/kaiwa/pose-17-one_leg-kaiwa_stageii.npz
Output file: ../robot/ik_based/pkl/008601.pkl
Robot type: unitree_g1
Processing time: 85.61 seconds

STEP-BY-STEP TIMING:
  Step 1 - Load SMPLX:        5.89s
  Step 2 - Align FPS:         8.67s
  Step 3 - Init Retarget:     0.26s
  Step 4 - Init Visualization: 0.00s
  Step 5 - Process Frames:    69.47s (avg: 0.077s/frame)
  Step 6 - Convert Arrays:    0.00s
  Step 7 - Forward Kinematics: 1.28s
  Step 8 - Save Data:         0.00s
Status: SUCCESS
==================================================

=== SUCCESS LOG - 2025-10-14 20:28:01 ===
Input file: /data/retarget/locomotion/raw/AMASS_SMPLXG/Eyes_Japan_Dataset/kaiwa/pose-20-zombee-kaiwa_stageii.npz
Output file: ../robot/ik_based/pkl/008603.pkl
Robot type: unitree_g1
Processing time: 66.13 seconds

STEP-BY-STEP TIMING:
  Step 1 - Load SMPLX:        3.03s
  Step 2 - Align FPS:         8.48s
  Step 3 - Init Retarget:     0.18s
  Step 4 - Init Visualization: 0.00s
  Step 5 - Process Frames:    53.98s (avg: 0.060s/frame)
  Step 6 - Convert Arrays:    0.00s
  Step 7 - Forward Kinematics: 0.30s
  Step 8 - Save Data:         0.01s
Status: SUCCESS
==================================================

=== SUCCESS LOG - 2025-10-14 20:28:22 ===
Input file: /data/retarget/locomotion/raw/AMASS_SMPLXG/Eyes_Japan_Dataset/kaiwa/sitdown_standup-03-chair_back-kaiwa_stageii.npz
Output file: ../robot/ik_based/pkl/008604.pkl
Robot type: unitree_g1
Processing time: 75.09 seconds

STEP-BY-STEP TIMING:
  Step 1 - Load SMPLX:        3.13s
  Step 2 - Align FPS:         7.63s
  Step 3 - Init Retarget:     0.23s
  Step 4 - Init Visualization: 0.00s
  Step 5 - Process Frames:    63.79s (avg: 0.071s/frame)
  Step 6 - Convert Arrays:    0.00s
  Step 7 - Forward Kinematics: 0.16s
  Step 8 - Save Data:         0.01s
Status: SUCCESS
==================================================

=== SUCCESS LOG - 2025-10-14 20:29:24 ===
Input file: /data/retarget/locomotion/raw/AMASS_SMPLXG/Eyes_Japan_Dataset/kaiwa/sitdown_standup-09-squat_down-kaiwa_stageii.npz
Output file: ../robot/ik_based/pkl/008605.pkl
Robot type: unitree_g1
Processing time: 81.52 seconds

STEP-BY-STEP TIMING:
  Step 1 - Load SMPLX:        2.61s
  Step 2 - Align FPS:         8.50s
  Step 3 - Init Retarget:     0.23s
  Step 4 - Init Visualization: 0.00s
  Step 5 - Process Frames:    69.92s (avg: 0.078s/frame)
  Step 6 - Convert Arrays:    0.00s
  Step 7 - Forward Kinematics: 0.14s
  Step 8 - Save Data:         0.00s
Status: SUCCESS
==================================================

=== SUCCESS LOG - 2025-10-14 20:29:50 ===
Input file: /data/retarget/locomotion/raw/AMASS_SMPLXG/Eyes_Japan_Dataset/kaiwa/tennis-02-forehand_lob-kaiwa_stageii.npz
Output file: ../robot/ik_based/pkl/008606.pkl
Robot type: unitree_g1
Processing time: 87.04 seconds

STEP-BY-STEP TIMING:
  Step 1 - Load SMPLX:        3.04s
  Step 2 - Align FPS:         9.69s
  Step 3 - Init Retarget:     0.22s
  Step 4 - Init Visualization: 0.00s
  Step 5 - Process Frames:    73.71s (avg: 0.082s/frame)
  Step 6 - Convert Arrays:    0.01s
  Step 7 - Forward Kinematics: 0.24s
  Step 8 - Save Data:         0.00s
Status: SUCCESS
==================================================

=== SUCCESS LOG - 2025-10-14 20:30:47 ===
Input file: /data/retarget/locomotion/raw/AMASS_SMPLXG/Eyes_Japan_Dataset/kaiwa/tennis-06-forehand_smash-kaiwa_stageii.npz
Output file: ../robot/ik_based/pkl/008607.pkl
Robot type: unitree_g1
Processing time: 82.70 seconds

STEP-BY-STEP TIMING:
  Step 1 - Load SMPLX:        2.85s
  Step 2 - Align FPS:         9.26s
  Step 3 - Init Retarget:     0.23s
  Step 4 - Init Visualization: 0.00s
  Step 5 - Process Frames:    69.95s (avg: 0.078s/frame)
  Step 6 - Convert Arrays:    0.00s
  Step 7 - Forward Kinematics: 0.21s
  Step 8 - Save Data:         0.01s
Status: SUCCESS
==================================================

=== SUCCESS LOG - 2025-10-14 20:31:09 ===
Input file: /data/retarget/locomotion/raw/AMASS_SMPLXG/Eyes_Japan_Dataset/kaiwa/tennis-18-catch_netball-kaiwa_stageii.npz
Output file: ../robot/ik_based/pkl/008608.pkl
Robot type: unitree_g1
Processing time: 78.26 seconds

STEP-BY-STEP TIMING:
  Step 1 - Load SMPLX:        2.88s
  Step 2 - Align FPS:         9.88s
  Step 3 - Init Retarget:     0.20s
  Step 4 - Init Visualization: 0.00s
  Step 5 - Process Frames:    64.92s (avg: 0.072s/frame)
  Step 6 - Convert Arrays:    0.00s
  Step 7 - Forward Kinematics: 0.20s
  Step 8 - Save Data:         0.00s
Status: SUCCESS
==================================================

=== SUCCESS LOG - 2025-10-14 20:32:19 ===
Input file: /data/retarget/locomotion/raw/AMASS_SMPLXG/Eyes_Japan_Dataset/kaiwa/throw_toss-09-shotput-kaiwa_stageii.npz
Output file: ../robot/ik_based/pkl/008610.pkl
Robot type: unitree_g1
Processing time: 91.74 seconds

STEP-BY-STEP TIMING:
  Step 1 - Load SMPLX:        2.60s
  Step 2 - Align FPS:         8.40s
  Step 3 - Init Retarget:     0.21s
  Step 4 - Init Visualization: 0.00s
  Step 5 - Process Frames:    80.14s (avg: 0.089s/frame)
  Step 6 - Convert Arrays:    0.00s
  Step 7 - Forward Kinematics: 0.23s
  Step 8 - Save Data:         0.01s
Status: SUCCESS
==================================================

=== SUCCESS LOG - 2025-10-14 20:32:27 ===
Input file: /data/retarget/locomotion/raw/AMASS_SMPLXG/Eyes_Japan_Dataset/kaiwa/throw_toss-12-dart-kaiwa_stageii.npz
Output file: ../robot/ik_based/pkl/008611.pkl
Robot type: unitree_g1
Processing time: 77.75 seconds

STEP-BY-STEP TIMING:
  Step 1 - Load SMPLX:        2.52s
  Step 2 - Align FPS:         8.75s
  Step 3 - Init Retarget:     0.22s
  Step 4 - Init Visualization: 0.00s
  Step 5 - Process Frames:    65.92s (avg: 0.073s/frame)
  Step 6 - Convert Arrays:    0.00s
  Step 7 - Forward Kinematics: 0.21s
  Step 8 - Save Data:         0.01s
Status: SUCCESS
==================================================

=== SUCCESS LOG - 2025-10-14 20:33:49 ===
Input file: /data/retarget/locomotion/raw/AMASS_SMPLXG/Eyes_Japan_Dataset/kaiwa/throw_toss-14-pass_to_right_heavy-kaiwa_stageii.npz
Output file: ../robot/ik_based/pkl/008613.pkl
Robot type: unitree_g1
Processing time: 89.29 seconds

STEP-BY-STEP TIMING:
  Step 1 - Load SMPLX:        3.09s
  Step 2 - Align FPS:         7.66s
  Step 3 - Init Retarget:     0.28s
  Step 4 - Init Visualization: 0.00s
  Step 5 - Process Frames:    77.89s (avg: 0.087s/frame)
  Step 6 - Convert Arrays:    0.00s
  Step 7 - Forward Kinematics: 0.20s
  Step 8 - Save Data:         0.01s
Status: SUCCESS
==================================================

=== SUCCESS LOG - 2025-10-14 20:34:04 ===
Input file: /data/retarget/locomotion/raw/AMASS_SMPLXG/Eyes_Japan_Dataset/kaiwa/throw_toss-17-pass_to_back_light-kaiwa_stageii.npz
Output file: ../robot/ik_based/pkl/008614.pkl
Robot type: unitree_g1
Processing time: 96.02 seconds

STEP-BY-STEP TIMING:
  Step 1 - Load SMPLX:        4.51s
  Step 2 - Align FPS:         10.41s
  Step 3 - Init Retarget:     0.32s
  Step 4 - Init Visualization: 0.00s
  Step 5 - Process Frames:    80.54s (avg: 0.089s/frame)
  Step 6 - Convert Arrays:    0.00s
  Step 7 - Forward Kinematics: 0.11s
  Step 8 - Save Data:         0.01s
Status: SUCCESS
==================================================

=== SUCCESS LOG - 2025-10-14 20:35:28 ===
Input file: /data/retarget/locomotion/raw/AMASS_SMPLXG/Eyes_Japan_Dataset/kaiwa/throw_toss-18-pass_to_back_heavy-kaiwa_stageii.npz
Output file: ../robot/ik_based/pkl/008615.pkl
Robot type: unitree_g1
Processing time: 97.71 seconds

STEP-BY-STEP TIMING:
  Step 1 - Load SMPLX:        2.90s
  Step 2 - Align FPS:         8.08s
  Step 3 - Init Retarget:     0.21s
  Step 4 - Init Visualization: 0.00s
  Step 5 - Process Frames:    86.13s (avg: 0.096s/frame)
  Step 6 - Convert Arrays:    0.00s
  Step 7 - Forward Kinematics: 0.22s
  Step 8 - Save Data:         0.01s
Status: SUCCESS
==================================================

=== SUCCESS LOG - 2025-10-14 20:35:30 ===
Input file: /data/retarget/locomotion/raw/AMASS_SMPLXG/Eyes_Japan_Dataset/kaiwa/throw_toss-19-pass_to_front_light-kaiwa_stageii.npz
Output file: ../robot/ik_based/pkl/008616.pkl
Robot type: unitree_g1
Processing time: 85.61 seconds

STEP-BY-STEP TIMING:
  Step 1 - Load SMPLX:        2.96s
  Step 2 - Align FPS:         9.98s
  Step 3 - Init Retarget:     0.29s
  Step 4 - Init Visualization: 0.00s
  Step 5 - Process Frames:    72.32s (avg: 0.080s/frame)
  Step 6 - Convert Arrays:    0.00s
  Step 7 - Forward Kinematics: 0.02s
  Step 8 - Save Data:         0.00s
Status: SUCCESS
==================================================

=== SUCCESS LOG - 2025-10-14 20:36:48 ===
Input file: /data/retarget/locomotion/raw/AMASS_SMPLXG/Eyes_Japan_Dataset/kaiwa/turn-01-call-kaiwa_stageii.npz
Output file: ../robot/ik_based/pkl/008618.pkl
Robot type: unitree_g1
Processing time: 79.54 seconds

STEP-BY-STEP TIMING:
  Step 1 - Load SMPLX:        3.31s
  Step 2 - Align FPS:         9.29s
  Step 3 - Init Retarget:     0.39s
  Step 4 - Init Visualization: 0.00s
  Step 5 - Process Frames:    66.21s (avg: 0.074s/frame)
  Step 6 - Convert Arrays:    0.00s
  Step 7 - Forward Kinematics: 0.20s
  Step 8 - Save Data:         0.01s
Status: SUCCESS
==================================================

=== SUCCESS LOG - 2025-10-14 20:36:51 ===
Input file: /data/retarget/locomotion/raw/AMASS_SMPLXG/Eyes_Japan_Dataset/kaiwa/turn-02-look_around-kaiwa_stageii.npz
Output file: ../robot/ik_based/pkl/008619.pkl
Robot type: unitree_g1
Processing time: 79.75 seconds

STEP-BY-STEP TIMING:
  Step 1 - Load SMPLX:        3.27s
  Step 2 - Align FPS:         11.48s
  Step 3 - Init Retarget:     0.23s
  Step 4 - Init Visualization: 0.00s
  Step 5 - Process Frames:    64.71s (avg: 0.072s/frame)
  Step 6 - Convert Arrays:    0.00s
  Step 7 - Forward Kinematics: 0.02s
  Step 8 - Save Data:         0.00s
Status: SUCCESS
==================================================

=== SUCCESS LOG - 2025-10-14 20:38:08 ===
Input file: /data/retarget/locomotion/raw/AMASS_SMPLXG/Eyes_Japan_Dataset/kaiwa/turn-05-turn-kaiwa_stageii.npz
Output file: ../robot/ik_based/pkl/008621.pkl
Robot type: unitree_g1
Processing time: 79.21 seconds

STEP-BY-STEP TIMING:
  Step 1 - Load SMPLX:        3.93s
  Step 2 - Align FPS:         10.45s
  Step 3 - Init Retarget:     0.84s
  Step 4 - Init Visualization: 0.00s
  Step 5 - Process Frames:    63.71s (avg: 0.071s/frame)
  Step 6 - Convert Arrays:    0.00s
  Step 7 - Forward Kinematics: 0.15s
  Step 8 - Save Data:         0.01s
Status: SUCCESS
==================================================

=== SUCCESS LOG - 2025-10-14 20:38:36 ===
Input file: /data/retarget/locomotion/raw/AMASS_SMPLXG/Eyes_Japan_Dataset/kaiwa/walk-16-push_by_hand-kaiwa_stageii.npz
Output file: ../robot/ik_based/pkl/008622.pkl
Robot type: unitree_g1
Processing time: 105.12 seconds

STEP-BY-STEP TIMING:
  Step 1 - Load SMPLX:        2.42s
  Step 2 - Align FPS:         11.18s
  Step 3 - Init Retarget:     0.21s
  Step 4 - Init Visualization: 0.00s
  Step 5 - Process Frames:    90.95s (avg: 0.101s/frame)
  Step 6 - Convert Arrays:    0.00s
  Step 7 - Forward Kinematics: 0.17s
  Step 8 - Save Data:         0.01s
Status: SUCCESS
==================================================

=== SUCCESS LOG - 2025-10-14 20:39:20 ===
Input file: /data/retarget/locomotion/raw/AMASS_SMPLXG/Eyes_Japan_Dataset/kaiwa/walk-24-listless-kaiwa_stageii.npz
Output file: ../robot/ik_based/pkl/008623.pkl
Robot type: unitree_g1
Processing time: 71.56 seconds

STEP-BY-STEP TIMING:
  Step 1 - Load SMPLX:        3.49s
  Step 2 - Align FPS:         9.71s
  Step 3 - Init Retarget:     0.36s
  Step 4 - Init Visualization: 0.00s
  Step 5 - Process Frames:    57.75s (avg: 0.065s/frame)
  Step 6 - Convert Arrays:    0.00s
  Step 7 - Forward Kinematics: 0.13s
  Step 8 - Save Data:         0.00s
Status: SUCCESS
==================================================

=== SUCCESS LOG - 2025-10-14 20:39:46 ===
Input file: /data/retarget/locomotion/raw/AMASS_SMPLXG/Eyes_Japan_Dataset/kaiwa/walk-26-exhausted-kaiwa_stageii.npz
Output file: ../robot/ik_based/pkl/008624.pkl
Robot type: unitree_g1
Processing time: 69.47 seconds

STEP-BY-STEP TIMING:
  Step 1 - Load SMPLX:        3.48s
  Step 2 - Align FPS:         9.23s
  Step 3 - Init Retarget:     0.32s
  Step 4 - Init Visualization: 0.00s
  Step 5 - Process Frames:    56.18s (avg: 0.063s/frame)
  Step 6 - Convert Arrays:    0.00s
  Step 7 - Forward Kinematics: 0.14s
  Step 8 - Save Data:         0.00s
Status: SUCCESS
==================================================

=== SUCCESS LOG - 2025-10-14 20:40:30 ===
Input file: /data/retarget/locomotion/raw/AMASS_SMPLXG/Eyes_Japan_Dataset/kaiwa/walk-29-look_down-kaiwa_stageii.npz
Output file: ../robot/ik_based/pkl/008626.pkl
Robot type: unitree_g1
Processing time: 69.46 seconds

STEP-BY-STEP TIMING:
  Step 1 - Load SMPLX:        4.04s
  Step 2 - Align FPS:         9.21s
  Step 3 - Init Retarget:     0.22s
  Step 4 - Init Visualization: 0.00s
  Step 5 - Process Frames:    55.70s (avg: 0.063s/frame)
  Step 6 - Convert Arrays:    0.00s
  Step 7 - Forward Kinematics: 0.17s
  Step 8 - Save Data:         0.00s
Status: SUCCESS
==================================================

=== SUCCESS LOG - 2025-10-14 20:41:01 ===
Input file: /data/retarget/locomotion/raw/AMASS_SMPLXG/Eyes_Japan_Dataset/kanno/accident-01-dodge-kanno_stageii.npz
Output file: ../robot/ik_based/pkl/008627.pkl
Robot type: unitree_g1
Processing time: 73.78 seconds

STEP-BY-STEP TIMING:
  Step 1 - Load SMPLX:        2.99s
  Step 2 - Align FPS:         10.87s
  Step 3 - Init Retarget:     0.23s
  Step 4 - Init Visualization: 0.00s
  Step 5 - Process Frames:    59.41s (avg: 0.067s/frame)
  Step 6 - Convert Arrays:    0.00s
  Step 7 - Forward Kinematics: 0.15s
  Step 8 - Save Data:         0.01s
Status: SUCCESS
==================================================

=== SUCCESS LOG - 2025-10-14 20:41:47 ===
Input file: /data/retarget/locomotion/raw/AMASS_SMPLXG/Eyes_Japan_Dataset/kanno/accident-02-dodge_fast-kanno_stageii.npz
Output file: ../robot/ik_based/pkl/008628.pkl
Robot type: unitree_g1
Processing time: 76.29 seconds

STEP-BY-STEP TIMING:
  Step 1 - Load SMPLX:        3.01s
  Step 2 - Align FPS:         7.50s
  Step 3 - Init Retarget:     0.23s
  Step 4 - Init Visualization: 0.00s
  Step 5 - Process Frames:    65.21s (avg: 0.073s/frame)
  Step 6 - Convert Arrays:    0.03s
  Step 7 - Forward Kinematics: 0.14s
  Step 8 - Save Data:         0.00s
Status: SUCCESS
==================================================

=== SUCCESS LOG - 2025-10-14 20:42:09 ===
Input file: /data/retarget/locomotion/raw/AMASS_SMPLXG/Eyes_Japan_Dataset/kanno/accident-03-damage_head-kanno_stageii.npz
Output file: ../robot/ik_based/pkl/008629.pkl
Robot type: unitree_g1
Processing time: 67.29 seconds

STEP-BY-STEP TIMING:
  Step 1 - Load SMPLX:        3.24s
  Step 2 - Align FPS:         8.55s
  Step 3 - Init Retarget:     0.22s
  Step 4 - Init Visualization: 0.00s
  Step 5 - Process Frames:    54.99s (avg: 0.062s/frame)
  Step 6 - Convert Arrays:    0.00s
  Step 7 - Forward Kinematics: 0.15s
  Step 8 - Save Data:         0.00s
Status: SUCCESS
==================================================

=== SUCCESS LOG - 2025-10-14 20:43:12 ===
Input file: /data/retarget/locomotion/raw/AMASS_SMPLXG/Eyes_Japan_Dataset/kanno/accident-05-damage_right_arm-kanno_stageii.npz
Output file: ../robot/ik_based/pkl/008631.pkl
Robot type: unitree_g1
Processing time: 84.34 seconds

STEP-BY-STEP TIMING:
  Step 1 - Load SMPLX:        8.88s
  Step 2 - Align FPS:         8.34s
  Step 3 - Init Retarget:     0.31s
  Step 4 - Init Visualization: 0.00s
  Step 5 - Process Frames:    66.43s (avg: 0.074s/frame)
  Step 6 - Convert Arrays:    0.01s
  Step 7 - Forward Kinematics: 0.26s
  Step 8 - Save Data:         0.00s
Status: SUCCESS
==================================================

=== SUCCESS LOG - 2025-10-14 20:43:19 ===
Input file: /data/retarget/locomotion/raw/AMASS_SMPLXG/Eyes_Japan_Dataset/kanno/accident-06-damage_left_leg-kanno_stageii.npz
Output file: ../robot/ik_based/pkl/008632.pkl
Robot type: unitree_g1
Processing time: 69.96 seconds

STEP-BY-STEP TIMING:
  Step 1 - Load SMPLX:        3.06s
  Step 2 - Align FPS:         8.40s
  Step 3 - Init Retarget:     0.37s
  Step 4 - Init Visualization: 0.00s
  Step 5 - Process Frames:    58.06s (avg: 0.065s/frame)
  Step 6 - Convert Arrays:    0.00s
  Step 7 - Forward Kinematics: 0.03s
  Step 8 - Save Data:         0.00s
Status: SUCCESS
==================================================

=== SUCCESS LOG - 2025-10-14 20:44:34 ===
Input file: /data/retarget/locomotion/raw/AMASS_SMPLXG/Eyes_Japan_Dataset/kanno/accident-10-spasm-kanno_stageii.npz
Output file: ../robot/ik_based/pkl/008635.pkl
Robot type: unitree_g1
Processing time: 74.42 seconds

STEP-BY-STEP TIMING:
  Step 1 - Load SMPLX:        2.81s
  Step 2 - Align FPS:         10.69s
  Step 3 - Init Retarget:     0.23s
  Step 4 - Init Visualization: 0.00s
  Step 5 - Process Frames:    60.34s (avg: 0.068s/frame)
  Step 6 - Convert Arrays:    0.01s
  Step 7 - Forward Kinematics: 0.16s
  Step 8 - Save Data:         0.04s
Status: SUCCESS
==================================================

=== SUCCESS LOG - 2025-10-14 20:44:35 ===
Input file: /data/retarget/locomotion/raw/AMASS_SMPLXG/Eyes_Japan_Dataset/kanno/accident-08-damage_rightfoot-kanno_stageii.npz
Output file: ../robot/ik_based/pkl/008634.pkl
Robot type: unitree_g1
Processing time: 81.26 seconds

STEP-BY-STEP TIMING:
  Step 1 - Load SMPLX:        7.14s
  Step 2 - Align FPS:         8.59s
  Step 3 - Init Retarget:     0.23s
  Step 4 - Init Visualization: 0.00s
  Step 5 - Process Frames:    65.10s (avg: 0.073s/frame)
  Step 6 - Convert Arrays:    0.00s
  Step 7 - Forward Kinematics: 0.02s
  Step 8 - Save Data:         0.00s
Status: SUCCESS
==================================================

=== SUCCESS LOG - 2025-10-14 20:45:59 ===
Input file: /data/retarget/locomotion/raw/AMASS_SMPLXG/Eyes_Japan_Dataset/kanno/accident-12-twist_foot-kanno_stageii.npz
Output file: ../robot/ik_based/pkl/008637.pkl
Robot type: unitree_g1
Processing time: 82.97 seconds

STEP-BY-STEP TIMING:
  Step 1 - Load SMPLX:        7.68s
  Step 2 - Align FPS:         13.56s
  Step 3 - Init Retarget:     0.32s
  Step 4 - Init Visualization: 0.00s
  Step 5 - Process Frames:    61.03s (avg: 0.068s/frame)
  Step 6 - Convert Arrays:    0.01s
  Step 7 - Forward Kinematics: 0.19s
  Step 8 - Save Data:         0.01s
Status: SUCCESS
==================================================

=== SUCCESS LOG - 2025-10-14 20:46:03 ===
Input file: /data/retarget/locomotion/raw/AMASS_SMPLXG/Eyes_Japan_Dataset/kanno/accident-11-fall_down-kanno_stageii.npz
Output file: ../robot/ik_based/pkl/008636.pkl
Robot type: unitree_g1
Processing time: 87.15 seconds

STEP-BY-STEP TIMING:
  Step 1 - Load SMPLX:        7.80s
  Step 2 - Align FPS:         11.24s
  Step 3 - Init Retarget:     1.19s
  Step 4 - Init Visualization: 0.00s
  Step 5 - Process Frames:    66.57s (avg: 0.075s/frame)
  Step 6 - Convert Arrays:    0.00s
  Step 7 - Forward Kinematics: 0.18s
  Step 8 - Save Data:         0.01s
Status: SUCCESS
==================================================

=== SUCCESS LOG - 2025-10-14 20:47:08 ===
Input file: /data/retarget/locomotion/raw/AMASS_SMPLXG/Eyes_Japan_Dataset/kanno/accident-14-dodge_turn_down-kanno_stageii.npz
Output file: ../robot/ik_based/pkl/008639.pkl
Robot type: unitree_g1
Processing time: 68.25 seconds

STEP-BY-STEP TIMING:
  Step 1 - Load SMPLX:        2.77s
  Step 2 - Align FPS:         5.62s
  Step 3 - Init Retarget:     0.45s
  Step 4 - Init Visualization: 0.00s
  Step 5 - Process Frames:    59.06s (avg: 0.066s/frame)
  Step 6 - Convert Arrays:    0.00s
  Step 7 - Forward Kinematics: 0.21s
  Step 8 - Save Data:         0.01s
Status: SUCCESS
==================================================

=== SUCCESS LOG - 2025-10-14 20:47:20 ===
Input file: /data/retarget/locomotion/raw/AMASS_SMPLXG/Eyes_Japan_Dataset/kanno/accident-15-knock_head_2-kanno_stageii.npz
Output file: ../robot/ik_based/pkl/008640.pkl
Robot type: unitree_g1
Processing time: 75.99 seconds

STEP-BY-STEP TIMING:
  Step 1 - Load SMPLX:        5.19s
  Step 2 - Align FPS:         8.14s
  Step 3 - Init Retarget:     0.29s
  Step 4 - Init Visualization: 0.00s
  Step 5 - Process Frames:    62.07s (avg: 0.070s/frame)
  Step 6 - Convert Arrays:    0.00s
  Step 7 - Forward Kinematics: 0.14s
  Step 8 - Save Data:         0.01s
Status: SUCCESS
==================================================

=== SUCCESS LOG - 2025-10-14 20:48:49 ===
Input file: /data/retarget/locomotion/raw/AMASS_SMPLXG/Eyes_Japan_Dataset/kanno/gesture_etc-41-mosh-kanno_stageii.npz
Output file: ../robot/ik_based/pkl/008643.pkl
Robot type: unitree_g1
Processing time: 87.64 seconds

STEP-BY-STEP TIMING:
  Step 1 - Load SMPLX:        3.00s
  Step 2 - Align FPS:         11.15s
  Step 3 - Init Retarget:     0.23s
  Step 4 - Init Visualization: 0.00s
  Step 5 - Process Frames:    72.94s (avg: 0.072s/frame)
  Step 6 - Convert Arrays:    0.00s
  Step 7 - Forward Kinematics: 0.15s
  Step 8 - Save Data:         0.01s
Status: SUCCESS
==================================================

=== SUCCESS LOG - 2025-10-14 20:48:58 ===
Input file: /data/retarget/locomotion/raw/AMASS_SMPLXG/Eyes_Japan_Dataset/kanno/gesture_etc-40-head_banging-kanno_stageii.npz
Output file: ../robot/ik_based/pkl/008642.pkl
Robot type: unitree_g1
Processing time: 109.23 seconds

STEP-BY-STEP TIMING:
  Step 1 - Load SMPLX:        3.29s
  Step 2 - Align FPS:         9.92s
  Step 3 - Init Retarget:     0.50s
  Step 4 - Init Visualization: 0.00s
  Step 5 - Process Frames:    95.19s (avg: 0.097s/frame)
  Step 6 - Convert Arrays:    0.00s
  Step 7 - Forward Kinematics: 0.15s
  Step 8 - Save Data:         0.01s
Status: SUCCESS
==================================================

=== SUCCESS LOG - 2025-10-14 20:50:14 ===
Input file: /data/retarget/locomotion/raw/AMASS_SMPLXG/Eyes_Japan_Dataset/kanno/gesture_etc-43-brush_teeth-kanno_stageii.npz
Output file: ../robot/ik_based/pkl/008644.pkl
Robot type: unitree_g1
Processing time: 84.44 seconds

STEP-BY-STEP TIMING:
  Step 1 - Load SMPLX:        2.80s
  Step 2 - Align FPS:         8.77s
  Step 3 - Init Retarget:     0.22s
  Step 4 - Init Visualization: 0.00s
  Step 5 - Process Frames:    72.32s (avg: 0.072s/frame)
  Step 6 - Convert Arrays:    0.00s
  Step 7 - Forward Kinematics: 0.17s
  Step 8 - Save Data:         0.01s
Status: SUCCESS
==================================================

=== SUCCESS LOG - 2025-10-14 20:50:17 ===
Input file: /data/retarget/locomotion/raw/AMASS_SMPLXG/Eyes_Japan_Dataset/kanno/gesture_etc-45-feel_dizzy_-kanno_stageii.npz
Output file: ../robot/ik_based/pkl/008645.pkl
Robot type: unitree_g1
Processing time: 79.11 seconds

STEP-BY-STEP TIMING:
  Step 1 - Load SMPLX:        5.35s
  Step 2 - Align FPS:         10.12s
  Step 3 - Init Retarget:     0.29s
  Step 4 - Init Visualization: 0.00s
  Step 5 - Process Frames:    63.29s (avg: 0.064s/frame)
  Step 6 - Convert Arrays:    0.00s
  Step 7 - Forward Kinematics: 0.02s
  Step 8 - Save Data:         0.00s
Status: SUCCESS
==================================================

=== SUCCESS LOG - 2025-10-14 20:51:33 ===
Input file: /data/retarget/locomotion/raw/AMASS_SMPLXG/Eyes_Japan_Dataset/kanno/gesture_etc-50-syuriken-kanno_stageii.npz
Output file: ../robot/ik_based/pkl/008647.pkl
Robot type: unitree_g1
Processing time: 78.58 seconds

STEP-BY-STEP TIMING:
  Step 1 - Load SMPLX:        3.76s
  Step 2 - Align FPS:         9.01s
  Step 3 - Init Retarget:     0.23s
  Step 4 - Init Visualization: 0.00s
  Step 5 - Process Frames:    65.26s (avg: 0.066s/frame)
  Step 6 - Convert Arrays:    0.00s
  Step 7 - Forward Kinematics: 0.16s
  Step 8 - Save Data:         0.00s
Status: SUCCESS
==================================================

=== SUCCESS LOG - 2025-10-14 20:51:35 ===
Input file: /data/retarget/locomotion/raw/AMASS_SMPLXG/Eyes_Japan_Dataset/kanno/greeting-01-hello-kanno_stageii.npz
Output file: ../robot/ik_based/pkl/008648.pkl
Robot type: unitree_g1
Processing time: 76.99 seconds

STEP-BY-STEP TIMING:
  Step 1 - Load SMPLX:        4.19s
  Step 2 - Align FPS:         12.34s
  Step 3 - Init Retarget:     0.21s
  Step 4 - Init Visualization: 0.00s
  Step 5 - Process Frames:    60.16s (avg: 0.060s/frame)
  Step 6 - Convert Arrays:    0.00s
  Step 7 - Forward Kinematics: 0.03s
  Step 8 - Save Data:         0.00s
Status: SUCCESS
==================================================

=== SUCCESS LOG - 2025-10-14 20:52:52 ===
Input file: /data/retarget/locomotion/raw/AMASS_SMPLXG/Eyes_Japan_Dataset/kanno/greeting-05-salute_(chest)-kanno_stageii.npz
Output file: ../robot/ik_based/pkl/008651.pkl
Robot type: unitree_g1
Processing time: 75.81 seconds

STEP-BY-STEP TIMING:
  Step 1 - Load SMPLX:        2.62s
  Step 2 - Align FPS:         14.06s
  Step 3 - Init Retarget:     0.29s
  Step 4 - Init Visualization: 0.00s
  Step 5 - Process Frames:    58.46s (avg: 0.058s/frame)
  Step 6 - Convert Arrays:    0.00s
  Step 7 - Forward Kinematics: 0.23s
  Step 8 - Save Data:         0.02s
Status: SUCCESS
==================================================

=== SUCCESS LOG - 2025-10-14 20:52:58 ===
Input file: /data/retarget/locomotion/raw/AMASS_SMPLXG/Eyes_Japan_Dataset/kanno/greeting-03-election-kanno_stageii.npz
Output file: ../robot/ik_based/pkl/008650.pkl
Robot type: unitree_g1
Processing time: 83.29 seconds

STEP-BY-STEP TIMING:
  Step 1 - Load SMPLX:        2.80s
  Step 2 - Align FPS:         13.28s
  Step 3 - Init Retarget:     1.64s
  Step 4 - Init Visualization: 0.00s
  Step 5 - Process Frames:    64.66s (avg: 0.064s/frame)
  Step 6 - Convert Arrays:    0.00s
  Step 7 - Forward Kinematics: 0.33s
  Step 8 - Save Data:         0.00s
Status: SUCCESS
==================================================

=== SUCCESS LOG - 2025-10-14 20:54:04 ===
Input file: /data/retarget/locomotion/raw/AMASS_SMPLXG/Eyes_Japan_Dataset/kanno/greeting-07-bow-kanno_stageii.npz
Output file: ../robot/ik_based/pkl/008652.pkl
Robot type: unitree_g1
Processing time: 70.73 seconds

STEP-BY-STEP TIMING:
  Step 1 - Load SMPLX:        3.18s
  Step 2 - Align FPS:         7.39s
  Step 3 - Init Retarget:     0.20s
  Step 4 - Init Visualization: 0.00s
  Step 5 - Process Frames:    59.71s (avg: 0.059s/frame)
  Step 6 - Convert Arrays:    0.00s
  Step 7 - Forward Kinematics: 0.13s
  Step 8 - Save Data:         0.00s
Status: SUCCESS
==================================================

=== SUCCESS LOG - 2025-10-14 20:54:14 ===
Input file: /data/retarget/locomotion/raw/AMASS_SMPLXG/Eyes_Japan_Dataset/kanno/greeting-08-shakehands-kanno_stageii.npz
Output file: ../robot/ik_based/pkl/008653.pkl
Robot type: unitree_g1
Processing time: 75.08 seconds

STEP-BY-STEP TIMING:
  Step 1 - Load SMPLX:        7.60s
  Step 2 - Align FPS:         11.09s
  Step 3 - Init Retarget:     0.29s
  Step 4 - Init Visualization: 0.00s
  Step 5 - Process Frames:    55.36s (avg: 0.054s/frame)
  Step 6 - Convert Arrays:    0.00s
  Step 7 - Forward Kinematics: 0.56s
  Step 8 - Save Data:         0.01s
Status: SUCCESS
==================================================

=== SUCCESS LOG - 2025-10-14 20:55:18 ===
Input file: /data/retarget/locomotion/raw/AMASS_SMPLXG/Eyes_Japan_Dataset/kanno/greeting-09-certificate-kanno_stageii.npz
Output file: ../robot/ik_based/pkl/008654.pkl
Robot type: unitree_g1
Processing time: 73.29 seconds

STEP-BY-STEP TIMING:
  Step 1 - Load SMPLX:        4.07s
  Step 2 - Align FPS:         7.73s
  Step 3 - Init Retarget:     0.29s
  Step 4 - Init Visualization: 0.00s
  Step 5 - Process Frames:    60.84s (avg: 0.060s/frame)
  Step 6 - Convert Arrays:    0.00s
  Step 7 - Forward Kinematics: 0.17s
  Step 8 - Save Data:         0.00s
Status: SUCCESS
==================================================

=== SUCCESS LOG - 2025-10-14 20:56:31 ===
Input file: /data/retarget/locomotion/raw/AMASS_SMPLXG/Eyes_Japan_Dataset/kanno/jump-07-rope_double-kanno_stageii.npz
Output file: ../robot/ik_based/pkl/008655.pkl
Robot type: unitree_g1
Processing time: 137.00 seconds

STEP-BY-STEP TIMING:
  Step 1 - Load SMPLX:        4.14s
  Step 2 - Align FPS:         9.74s
  Step 3 - Init Retarget:     0.46s
  Step 4 - Init Visualization: 0.00s
  Step 5 - Process Frames:    122.33s (avg: 0.125s/frame)
  Step 6 - Convert Arrays:    0.00s
  Step 7 - Forward Kinematics: 0.18s
  Step 8 - Save Data:         0.01s
Status: SUCCESS
==================================================

=== SUCCESS LOG - 2025-10-14 20:56:53 ===
Input file: /data/retarget/locomotion/raw/AMASS_SMPLXG/Eyes_Japan_Dataset/kanno/jump-08-rope_backward-kanno_stageii.npz
Output file: ../robot/ik_based/pkl/008656.pkl
Robot type: unitree_g1
Processing time: 94.27 seconds

STEP-BY-STEP TIMING:
  Step 1 - Load SMPLX:        3.40s
  Step 2 - Align FPS:         8.22s
  Step 3 - Init Retarget:     0.21s
  Step 4 - Init Visualization: 0.00s
  Step 5 - Process Frames:    82.17s (avg: 0.084s/frame)
  Step 6 - Convert Arrays:    0.00s
  Step 7 - Forward Kinematics: 0.14s
  Step 8 - Save Data:         0.00s
Status: SUCCESS
==================================================

=== SUCCESS LOG - 2025-10-14 20:57:51 ===
Input file: /data/retarget/locomotion/raw/AMASS_SMPLXG/Eyes_Japan_Dataset/kanno/jump-10-rope_long-kanno_stageii.npz
Output file: ../robot/ik_based/pkl/008658.pkl
Robot type: unitree_g1
Processing time: 78.98 seconds

STEP-BY-STEP TIMING:
  Step 1 - Load SMPLX:        3.22s
  Step 2 - Align FPS:         10.98s
  Step 3 - Init Retarget:     0.30s
  Step 4 - Init Visualization: 0.00s
  Step 5 - Process Frames:    64.21s (avg: 0.063s/frame)
  Step 6 - Convert Arrays:    0.00s
  Step 7 - Forward Kinematics: 0.13s
  Step 8 - Save Data:         0.01s
Status: SUCCESS
==================================================

=== SUCCESS LOG - 2025-10-14 20:58:50 ===
Input file: /data/retarget/locomotion/raw/AMASS_SMPLXG/Eyes_Japan_Dataset/kanno/jump-12-boxer_step-kanno_stageii.npz
Output file: ../robot/ik_based/pkl/008659.pkl
Robot type: unitree_g1
Processing time: 116.43 seconds

STEP-BY-STEP TIMING:
  Step 1 - Load SMPLX:        8.89s
  Step 2 - Align FPS:         9.93s
  Step 3 - Init Retarget:     0.20s
  Step 4 - Init Visualization: 0.00s
  Step 5 - Process Frames:    97.12s (avg: 0.097s/frame)
  Step 6 - Convert Arrays:    0.00s
  Step 7 - Forward Kinematics: 0.13s
  Step 8 - Save Data:         0.00s
Status: SUCCESS
==================================================

=== ERROR LOG - 2025-10-14 20:58:52 ===
Input file: /data/retarget/locomotion/raw/AMASS_SMPLXG/Eyes_Japan_Dataset/kanno/male_stagei.npz
Output file: ../robot/ik_based/pkl/008661.pkl
Robot type: unitree_g1
Processing time: 1.69 seconds
Error message: 'pose_body is not a file in the archive'
Error type: KeyError
==================================================

=== SUCCESS LOG - 2025-10-14 20:59:38 ===
Input file: /data/retarget/locomotion/raw/AMASS_SMPLXG/Eyes_Japan_Dataset/kanno/jump-13-matrix-kanno_stageii.npz
Output file: ../robot/ik_based/pkl/008660.pkl
Robot type: unitree_g1
Processing time: 105.87 seconds

STEP-BY-STEP TIMING:
  Step 1 - Load SMPLX:        2.66s
  Step 2 - Align FPS:         9.76s
  Step 3 - Init Retarget:     0.24s
  Step 4 - Init Visualization: 0.00s
  Step 5 - Process Frames:    92.93s (avg: 0.092s/frame)
  Step 6 - Convert Arrays:    0.01s
  Step 7 - Forward Kinematics: 0.16s
  Step 8 - Save Data:         0.00s
Status: SUCCESS
==================================================

=== SUCCESS LOG - 2025-10-14 20:59:52 ===
Input file: /data/retarget/locomotion/raw/AMASS_SMPLXG/Eyes_Japan_Dataset/kanno/pose-05-cross_leg-kanno_stageii.npz
Output file: ../robot/ik_based/pkl/008662.pkl
Robot type: unitree_g1
Processing time: 59.26 seconds

STEP-BY-STEP TIMING:
  Step 1 - Load SMPLX:        2.86s
  Step 2 - Align FPS:         9.01s
  Step 3 - Init Retarget:     0.24s
  Step 4 - Init Visualization: 0.00s
  Step 5 - Process Frames:    46.81s (avg: 0.052s/frame)
  Step 6 - Convert Arrays:    0.00s
  Step 7 - Forward Kinematics: 0.16s
  Step 8 - Save Data:         0.01s
Status: SUCCESS
==================================================

=== SUCCESS LOG - 2025-10-14 21:00:47 ===
Input file: /data/retarget/locomotion/raw/AMASS_SMPLXG/Eyes_Japan_Dataset/kanno/pose-08-pray_buddhismintone-kanno_stageii.npz
Output file: ../robot/ik_based/pkl/008664.pkl
Robot type: unitree_g1
Processing time: 68.17 seconds

STEP-BY-STEP TIMING:
  Step 1 - Load SMPLX:        3.44s
  Step 2 - Align FPS:         7.87s
  Step 3 - Init Retarget:     0.32s
  Step 4 - Init Visualization: 0.00s
  Step 5 - Process Frames:    56.24s (avg: 0.063s/frame)
  Step 6 - Convert Arrays:    0.00s
  Step 7 - Forward Kinematics: 0.15s
  Step 8 - Save Data:         0.00s
Status: SUCCESS
==================================================

=== SUCCESS LOG - 2025-10-14 21:00:58 ===
Input file: /data/retarget/locomotion/raw/AMASS_SMPLXG/Eyes_Japan_Dataset/kanno/pose-09-pray_buddhism-kanno_stageii.npz
Output file: ../robot/ik_based/pkl/008665.pkl
Robot type: unitree_g1
Processing time: 65.49 seconds

STEP-BY-STEP TIMING:
  Step 1 - Load SMPLX:        3.23s
  Step 2 - Align FPS:         9.01s
  Step 3 - Init Retarget:     0.26s
  Step 4 - Init Visualization: 0.00s
  Step 5 - Process Frames:    51.97s (avg: 0.058s/frame)
  Step 6 - Convert Arrays:    0.00s
  Step 7 - Forward Kinematics: 0.06s
  Step 8 - Save Data:         0.03s
Status: SUCCESS
==================================================

[...]
Error type: OutOfMemoryError
==================================================

=== ERROR LOG - 2025-10-15 06:25:25 ===
Input file: /data/retarget/locomotion/raw/AMASS_SMPLXG/HDM05/bk/HDM_bk_03-02_03_120_stageii.npz
Output file: ../robot/ik_based/pkl/010358.pkl
Robot type: unitree_g1
Processing time: 255.10 seconds

STEP-BY-STEP TIMING (FAILED):
  Load Smplx: 45.31s
  Align Fps: 11.69s
  Init Retarget: 0.34s
  Init Visualization: 0.00s
  Process Frames: 197.66s (avg: 0.185s/frame)
  Convert Arrays: 0.00s
Error message: CUDA out of memory. Tried to allocate 2.00 MiB. GPU 0 has a total capacity of 23.58 GiB of which 74.31 MiB is free. Process 106491 has 332.00 MiB memory in use. Process 381781 has 332.00 MiB memory in use. Process 651230 has 336.00 MiB memory in use. Process 651323 has 340.00 MiB memory in use. Including non-PyTorch memory, this process has 338.00 MiB memory in use. Process 652122 has 336.00 MiB memory in use. Process 758984 has 332.00 MiB memory in use. Process 759061 has 332.00 MiB memory in use. Process 759140 has 332.00 MiB memory in use. Process 759277 has 332.00 MiB memory in use. Process 759587 has 332.00 MiB memory in use. Process 759754 has 332.00 MiB memory in use. Process 760292 has 332.00 MiB memory in use. Process 760574 has 332.00 MiB memory in use. Process 760908 has 332.00 MiB memory in use. Process 761223 has 332.00 MiB memory in use. Process 761507 has 332.00 MiB memory in use. Process 761784 has 332.00 MiB memory in use. Process 762065 has 332.00 MiB memory in use. Process 762398 has 332.00 MiB memory in use. Process 762712 has 332.00 MiB memory in use. Process 763000 has 332.00 MiB memory in use. Process 763207 has 332.00 MiB memory in use. Process 763626 has 332.00 MiB memory in use. Process 763813 has 332.00 MiB memory in use. Process 764099 has 62.00 MiB memory in use. Process 764277 has 332.00 MiB memory in use. Process 764470 has 332.00 MiB memory in use. Process 764800 has 332.00 MiB memory in use. Process 765270 has 332.00 MiB memory in use. Process 765495 has 332.00 MiB memory in use. Process 765996 has 332.00 MiB memory in use. Process 766580 has 332.00 MiB memory in use. Process 766668 has 332.00 MiB memory in use. Process 767492 has 332.00 MiB memory in use. Process 767044 has 332.00 MiB memory in use. Process 767720 has 332.00 MiB memory in use. Process 767797 has 332.00 MiB memory in use. Process 768541 has 332.00 MiB memory in use. Process 769125 has 332.00 MiB memory in use. Process 768850 has 332.00 MiB memory in use. Process 769686 has 332.00 MiB memory in use. Process 769459 has 332.00 MiB memory in use. Process 769827 has 332.00 MiB memory in use. Process 770524 has 332.00 MiB memory in use. Process 770888 has 332.00 MiB memory in use. Process 770316 has 332.00 MiB memory in use. Process 771275 has 332.00 MiB memory in use. Process 771105 has 332.00 MiB memory in use. Process 771771 has 332.00 MiB memory in use. Process 771619 has 332.00 MiB memory in use. Process 772148 has 332.00 MiB memory in use. Process 772899 has 332.00 MiB memory in use. Process 772664 has 332.00 MiB memory in use. Process 773176 has 332.00 MiB memory in use. Process 773279 has 332.00 MiB memory in use. Process 773623 has 332.00 MiB memory in use. Process 774056 has 332.00 MiB memory in use. Process 774461 has 332.00 MiB memory in use. Process 774726 has 332.00 MiB memory in use. Process 774904 has 332.00 MiB memory in use. Process 775026 has 332.00 MiB memory in use. Process 775459 has 332.00 MiB memory in use. Process 775737 has 332.00 MiB memory in use. Process 775847 has 332.00 MiB memory in use. Process 776237 has 332.00 MiB memory in use. Process 776606 has 332.00 MiB memory in use. Process 776978 has 332.00 MiB memory in use. Process 776886 has 332.00 MiB memory in use. Process 777350 has 332.00 MiB memory in use. Process 777531 has 332.00 MiB memory in use. Process 879266 has 332.00 MiB memory in use. Of the allocated memory 19.30 MiB is allocated by PyTorch, and 4.70 MiB is reserved by PyTorch but unallocated. If reserved but unallocated memory is large try setting PYTORCH_CUDA_ALLOC_CONF=expandable_segments:True to avoid fragmentation.  See documentation for Memory Management  (https://pytorch.org/docs/stable/notes/cuda.html#environment-variables)
Error type: OutOfMemoryError
==================================================

=== ERROR LOG - 2025-10-15 06:29:42 ===
Input file: /data/retarget/locomotion/raw/AMASS_SMPLXG/HDM05/bk/HDM_bk_03-03_03_120_stageii.npz
Output file: ../robot/ik_based/pkl/010361.pkl
Robot type: unitree_g1
Processing time: 255.54 seconds

STEP-BY-STEP TIMING (FAILED):
  Load Smplx: 24.76s
  Align Fps: 33.14s
  Init Retarget: 0.71s
  Init Visualization: 0.00s
  Process Frames: 196.42s (avg: 0.164s/frame)
  Convert Arrays: 0.02s
  Forward Kinematics: 0.28s
Error message: CUDA out of memory. Tried to allocate 2.00 MiB. GPU 0 has a total capacity of 23.58 GiB of which 74.31 MiB is free. Process 106491 has 332.00 MiB memory in use. Process 381781 has 332.00 MiB memory in use. Process 651230 has 336.00 MiB memory in use. Process 651323 has 340.00 MiB memory in use. Including non-PyTorch memory, this process has 338.00 MiB memory in use. Process 652122 has 336.00 MiB memory in use. Process 758984 has 332.00 MiB memory in use. Process 759061 has 332.00 MiB memory in use. Process 759140 has 332.00 MiB memory in use. Process 759277 has 332.00 MiB memory in use. Process 759587 has 332.00 MiB memory in use. Process 759754 has 332.00 MiB memory in use. Process 760292 has 332.00 MiB memory in use. Process 760574 has 332.00 MiB memory in use. Process 760908 has 332.00 MiB memory in use. Process 761223 has 332.00 MiB memory in use. Process 761507 has 332.00 MiB memory in use. Process 761784 has 332.00 MiB memory in use. Process 762065 has 332.00 MiB memory in use. Process 762398 has 332.00 MiB memory in use. Process 762712 has 332.00 MiB memory in use. Process 763000 has 332.00 MiB memory in use. Process 763207 has 332.00 MiB memory in use. Process 763626 has 332.00 MiB memory in use. Process 763813 has 332.00 MiB memory in use. Process 764099 has 62.00 MiB memory in use. Process 764277 has 332.00 MiB memory in use. Process 764470 has 332.00 MiB memory in use. Process 764800 has 332.00 MiB memory in use. Process 765270 has 332.00 MiB memory in use. Process 765495 has 332.00 MiB memory in use. Process 765996 has 332.00 MiB memory in use. Process 766580 has 332.00 MiB memory in use. Process 766668 has 332.00 MiB memory in use. Process 767492 has 332.00 MiB memory in use. Process 767044 has 332.00 MiB memory in use. Process 767720 has 332.00 MiB memory in use. Process 767797 has 332.00 MiB memory in use. Process 768541 has 332.00 MiB memory in use. Process 769125 has 332.00 MiB memory in use. Process 768850 has 332.00 MiB memory in use. Process 769686 has 332.00 MiB memory in use. Process 769459 has 332.00 MiB memory in use. Process 769827 has 332.00 MiB memory in use. Process 770524 has 332.00 MiB memory in use. Process 770888 has 332.00 MiB memory in use. Process 770316 has 332.00 MiB memory in use. Process 771275 has 332.00 MiB memory in use. Process 771105 has 332.00 MiB memory in use. Process 771771 has 332.00 MiB memory in use. Process 771619 has 332.00 MiB memory in use. Process 772148 has 332.00 MiB memory in use. Process 772899 has 332.00 MiB memory in use. Process 772664 has 332.00 MiB memory in use. Process 773176 has 332.00 MiB memory in use. Process 773279 has 332.00 MiB memory in use. Process 773623 has 332.00 MiB memory in use. Process 774056 has 332.00 MiB memory in use. Process 774461 has 332.00 MiB memory in use. Process 774726 has 332.00 MiB memory in use. Process 774904 has 332.00 MiB memory in use. Process 775026 has 332.00 MiB memory in use. Process 775459 has 332.00 MiB memory in use. Process 775737 has 332.00 MiB memory in use. Process 775847 has 332.00 MiB memory in use. Process 776237 has 332.00 MiB memory in use. Process 776606 has 332.00 MiB memory in use. Process 776978 has 332.00 MiB memory in use. Process 776886 has 332.00 MiB memory in use. Process 777350 has 332.00 MiB memory in use. Process 777531 has 332.00 MiB memory in use. Process 879266 has 332.00 MiB memory in use. Of the allocated memory 19.61 MiB is allocated by PyTorch, and 4.39 MiB is reserved by PyTorch but unallocated. If reserved but unallocated memory is large try setting PYTORCH_CUDA_ALLOC_CONF=expandable_segments:True to avoid fragmentation.  See documentation for Memory Management  (https://pytorch.org/docs/stable/notes/cuda.html#environment-variables)
Error type: OutOfMemoryError
==================================================

=== ERROR LOG - 2025-10-15 06:30:11 ===
Input file: /data/retarget/locomotion/raw/AMASS_SMPLXG/HDM05/bk/HDM_bk_03-03_02_120_stageii.npz
Output file: ../robot/ik_based/pkl/010360.pkl
Robot type: unitree_g1
Processing time: 285.44 seconds

STEP-BY-STEP TIMING (FAILED):
  Load Smplx: 24.07s
  Align Fps: 35.79s
  Init Retarget: 0.28s
  Init Visualization: 0.00s
  Process Frames: 200.80s (avg: 0.160s/frame)
  Convert Arrays: 0.02s
  Forward Kinematics: 24.30s
Error message: CUDA out of memory. Tried to allocate 2.00 MiB. GPU 0 has a total capacity of 23.58 GiB of which 74.31 MiB is free. Process 106491 has 332.00 MiB memory in use. Process 381781 has 332.00 MiB memory in use. Process 651230 has 336.00 MiB memory in use. Process 651323 has 340.00 MiB memory in use. Including non-PyTorch memory, this process has 338.00 MiB memory in use. Process 652122 has 336.00 MiB memory in use. Process 758984 has 332.00 MiB memory in use. Process 759061 has 332.00 MiB memory in use. Process 759140 has 332.00 MiB memory in use. Process 759277 has 332.00 MiB memory in use. Process 759587 has 332.00 MiB memory in use. Process 759754 has 332.00 MiB memory in use. Process 760292 has 332.00 MiB memory in use. Process 760574 has 332.00 MiB memory in use. Process 760908 has 332.00 MiB memory in use. Process 761223 has 332.00 MiB memory in use. Process 761507 has 332.00 MiB memory in use. Process 761784 has 332.00 MiB memory in use. Process 762065 has 332.00 MiB memory in use. Process 762398 has 332.00 MiB memory in use. Process 762712 has 332.00 MiB memory in use. Process 763000 has 332.00 MiB memory in use. Process 763207 has 332.00 MiB memory in use. Process 763626 has 332.00 MiB memory in use. Process 763813 has 332.00 MiB memory in use. Process 764099 has 62.00 MiB memory in use. Process 764277 has 332.00 MiB memory in use. Process 764470 has 332.00 MiB memory in use. Process 764800 has 332.00 MiB memory in use. Process 765270 has 332.00 MiB memory in use. Process 765495 has 332.00 MiB memory in use. Process 765996 has 332.00 MiB memory in use. Process 766580 has 332.00 MiB memory in use. Process 766668 has 332.00 MiB memory in use. Process 767492 has 332.00 MiB memory in use. Process 767044 has 332.00 MiB memory in use. Process 767720 has 332.00 MiB memory in use. Process 767797 has 332.00 MiB memory in use. Process 768541 has 332.00 MiB memory in use. Process 769125 has 332.00 MiB memory in use. Process 768850 has 332.00 MiB memory in use. Process 769686 has 332.00 MiB memory in use. Process 769459 has 332.00 MiB memory in use. Process 769827 has 332.00 MiB memory in use. Process 770524 has 332.00 MiB memory in use. Process 770888 has 332.00 MiB memory in use. Process 770316 has 332.00 MiB memory in use. Process 771275 has 332.00 MiB memory in use. Process 771105 has 332.00 MiB memory in use. Process 771771 has 332.00 MiB memory in use. Process 771619 has 332.00 MiB memory in use. Process 772148 has 332.00 MiB memory in use. Process 772899 has 332.00 MiB memory in use. Process 772664 has 332.00 MiB memory in use. Process 773176 has 332.00 MiB memory in use. Process 773279 has 332.00 MiB memory in use. Process 773623 has 332.00 MiB memory in use. Process 774056 has 332.00 MiB memory in use. Process 774461 has 332.00 MiB memory in use. Process 774726 has 332.00 MiB memory in use. Process 774904 has 332.00 MiB memory in use. Process 775026 has 332.00 MiB memory in use. Process 775459 has 332.00 MiB memory in use. Process 775737 has 332.00 MiB memory in use. Process 775847 has 332.00 MiB memory in use. Process 776237 has 332.00 MiB memory in use. Process 776606 has 332.00 MiB memory in use. Process 776978 has 332.00 MiB memory in use. Process 776886 has 332.00 MiB memory in use. Process 777350 has 332.00 MiB memory in use. Process 777531 has 332.00 MiB memory in use. Process 879266 has 332.00 MiB memory in use. Of the allocated memory 19.73 MiB is allocated by PyTorch, and 4.27 MiB is reserved by PyTorch but unallocated. If reserved but unallocated memory is large try setting PYTORCH_CUDA_ALLOC_CONF=expandable_segments:True to avoid fragmentation.  See documentation for Memory Management  (https://pytorch.org/docs/stable/notes/cuda.html#environment-variables)
Error type: OutOfMemoryError
==================================================

=== SUCCESS LOG - 2025-10-15 06:36:17 ===
Input file: /data/retarget/locomotion/raw/AMASS_SMPLXG/HDM05/bk/HDM_bk_03-04_02_120_stageii.npz
Output file: ../robot/ik_based/pkl/010363.pkl
Robot type: unitree_g1
Processing time: 363.21 seconds

STEP-BY-STEP TIMING:
  Step 1 - Load SMPLX:        22.85s
  Step 2 - Align FPS:         22.31s
  Step 3 - Init Retarget:     0.39s
  Step 4 - Init Visualization: 0.00s
  Step 5 - Process Frames:    317.18s (avg: 0.171s/frame)
  Step 6 - Convert Arrays:    0.01s
  Step 7 - Forward Kinematics: 0.27s
  Step 8 - Save Data:         0.01s
Status: SUCCESS
==================================================

=== SUCCESS LOG - 2025-10-15 06:36:20 ===
Input file: /data/retarget/locomotion/raw/AMASS_SMPLXG/HDM05/bk/HDM_bk_03-04_01_120_stageii.npz
Output file: ../robot/ik_based/pkl/010362.pkl
Robot type: unitree_g1
Processing time: 395.25 seconds

STEP-BY-STEP TIMING:
  Step 1 - Load SMPLX:        51.06s
  Step 2 - Align FPS:         30.56s
  Step 3 - Init Retarget:     0.25s
  Step 4 - Init Visualization: 0.00s
  Step 5 - Process Frames:    313.27s (avg: 0.110s/frame)
  Step 6 - Convert Arrays:    0.01s
  Step 7 - Forward Kinematics: 0.05s
  Step 8 - Save Data:         0.01s
Status: SUCCESS
==================================================

=== SUCCESS LOG - 2025-10-15 06:40:14 ===
Input file: /data/retarget/locomotion/raw/AMASS_SMPLXG/HDM05/bk/HDM_bk_03-05_01_120_stageii.npz
Output file: ../robot/ik_based/pkl/010366.pkl
Robot type: unitree_g1
Processing time: 231.83 seconds

STEP-BY-STEP TIMING:
  Step 1 - Load SMPLX:        4.29s
  Step 2 - Align FPS:         27.17s
  Step 3 - Init Retarget:     0.63s
  Step 4 - Init Visualization: 0.00s
  Step 5 - Process Frames:    199.33s (avg: 0.132s/frame)
  Step 6 - Convert Arrays:    0.04s
  Step 7 - Forward Kinematics: 0.18s
  Step 8 - Save Data:         0.00s
Status: SUCCESS
==================================================

=== SUCCESS LOG - 2025-10-15 06:42:50 ===
Input file: /data/retarget/locomotion/raw/AMASS_SMPLXG/HDM05/bk/HDM_bk_03-04_04_120_stageii.npz
Output file: ../robot/ik_based/pkl/010365.pkl
Robot type: unitree_g1
Processing time: 390.99 seconds

STEP-BY-STEP TIMING:
  Step 1 - Load SMPLX:        6.49s
  Step 2 - Align FPS:         29.63s
  Step 3 - Init Retarget:     0.52s
  Step 4 - Init Visualization: 0.00s
  Step 5 - Process Frames:    353.84s (avg: 0.193s/frame)
  Step 6 - Convert Arrays:    0.04s
  Step 7 - Forward Kinematics: 0.21s
  Step 8 - Save Data:         0.06s
Status: SUCCESS
==================================================

=== SUCCESS LOG - 2025-10-15 06:43:51 ===
Input file: /data/retarget/locomotion/raw/AMASS_SMPLXG/HDM05/bk/HDM_bk_03-05_02_120_stageii.npz
Output file: ../robot/ik_based/pkl/010367.pkl
Robot type: unitree_g1
Processing time: 215.41 seconds

STEP-BY-STEP TIMING:
  Step 1 - Load SMPLX:        21.58s
  Step 2 - Align FPS:         17.15s
  Step 3 - Init Retarget:     0.29s
  Step 4 - Init Visualization: 0.00s
  Step 5 - Process Frames:    175.92s (avg: 0.152s/frame)
  Step 6 - Convert Arrays:    0.00s
  Step 7 - Forward Kinematics: 0.21s
  Step 8 - Save Data:         0.02s
Status: SUCCESS
==================================================

=== SUCCESS LOG - 2025-10-15 06:46:43 ===
Input file: /data/retarget/locomotion/raw/AMASS_SMPLXG/HDM05/bk/HDM_bk_03-05_03_120_stageii.npz
Output file: ../robot/ik_based/pkl/010368.pkl
Robot type: unitree_g1
Processing time: 231.58 seconds

STEP-BY-STEP TIMING:
  Step 1 - Load SMPLX:        3.24s
  Step 2 - Align FPS:         15.23s
  Step 3 - Init Retarget:     0.41s
  Step 4 - Init Visualization: 0.00s
  Step 5 - Process Frames:    212.36s (avg: 0.184s/frame)
  Step 6 - Convert Arrays:    0.01s
  Step 7 - Forward Kinematics: 0.20s
  Step 8 - Save Data:         0.00s
Status: SUCCESS
==================================================

=== SUCCESS LOG - 2025-10-15 06:46:53 ===
Input file: /data/retarget/locomotion/raw/AMASS_SMPLXG/HDM05/bk/HDM_bk_03-11_01_120_stageii.npz
Output file: ../robot/ik_based/pkl/010369.pkl
Robot type: unitree_g1
Processing time: 180.42 seconds

STEP-BY-STEP TIMING:
  Step 1 - Load SMPLX:        31.74s
  Step 2 - Align FPS:         21.93s
  Step 3 - Init Retarget:     0.54s
  Step 4 - Init Visualization: 0.00s
  Step 5 - Process Frames:    126.07s (avg: 0.162s/frame)
  Step 6 - Convert Arrays:    0.01s
  Step 7 - Forward Kinematics: 0.04s
  Step 8 - Save Data:         0.01s
Status: SUCCESS
==================================================

=== SUCCESS LOG - 2025-10-15 06:49:07 ===
Input file: /data/retarget/locomotion/raw/AMASS_SMPLXG/HDM05/bk/HDM_bk_03-11_03_120_stageii.npz
Output file: ../robot/ik_based/pkl/010371.pkl
Robot type: unitree_g1
Processing time: 142.50 seconds

STEP-BY-STEP TIMING:
  Step 1 - Load SMPLX:        2.86s
  Step 2 - Align FPS:         5.22s
  Step 3 - Init Retarget:     0.51s
  Step 4 - Init Visualization: 0.00s
  Step 5 - Process Frames:    133.34s (avg: 0.177s/frame)
  Step 6 - Convert Arrays:    0.00s
  Step 7 - Forward Kinematics: 0.23s
  Step 8 - Save Data:         0.08s
Status: SUCCESS
==================================================
