
=== SUCCESS LOG - 2025-10-14 17:26:50 ===
Input file: /data/retarget/locomotion/raw/AMASS_SMPLXG/KIT/3/jump_forward02_stageii.npz
Output file: ../robot/ik_based/pkl/012002.pkl
Robot type: unitree_g1
Processing time: 14.91 seconds

STEP-BY-STEP TIMING:
  Step 1 - Load SMPLX:        1.25s
  Step 2 - Align FPS:         2.46s
  Step 3 - Init Retarget:     0.98s
  Step 4 - Init Visualization: 0.00s
  Step 5 - Process Frames:    8.95s (avg: 0.095s/frame)
  Step 6 - Convert Arrays:    0.00s
  Step 7 - Forward Kinematics: 1.11s
  Step 8 - Save Data:         0.00s
Status: SUCCESS
==================================================

=== SUCCESS LOG - 2025-10-14 17:26:50 ===
Input file: /data/retarget/locomotion/raw/AMASS_SMPLXG/KIT/3/jump_back05_stageii.npz
Output file: ../robot/ik_based/pkl/012001.pkl
Robot type: unitree_g1
Processing time: 15.17 seconds

STEP-BY-STEP TIMING:
  Step 1 - Load SMPLX:        1.28s
  Step 2 - Align FPS:         2.31s
  Step 3 - Init Retarget:     1.06s
  Step 4 - Init Visualization: 0.00s
  Step 5 - Process Frames:    9.87s (avg: 0.082s/frame)
  Step 6 - Convert Arrays:    0.00s
  Step 7 - Forward Kinematics: 0.49s
  Step 8 - Save Data:         0.00s
Status: SUCCESS
==================================================

=== SUCCESS LOG - 2025-10-14 17:26:50 ===
Input file: /data/retarget/locomotion/raw/AMASS_SMPLXG/KIT/3/jump_back04_stageii.npz
Output file: ../robot/ik_based/pkl/012000.pkl
Robot type: unitree_g1
Processing time: 15.27 seconds

STEP-BY-STEP TIMING:
  Step 1 - Load SMPLX:        1.23s
  Step 2 - Align FPS:         2.29s
  Step 3 - Init Retarget:     1.19s
  Step 4 - Init Visualization: 0.00s
  Step 5 - Process Frames:    9.89s (avg: 0.092s/frame)
  Step 6 - Convert Arrays:    0.00s
  Step 7 - Forward Kinematics: 0.51s
  Step 8 - Save Data:         0.00s
Status: SUCCESS
==================================================

=== SUCCESS LOG - 2025-10-14 17:27:02 ===
Input file: /data/retarget/locomotion/raw/AMASS_SMPLXG/KIT/3/jump_forward04_stageii.npz
Output file: ../robot/ik_based/pkl/012004.pkl
Robot type: unitree_g1
Processing time: 12.03 seconds

STEP-BY-STEP TIMING:
  Step 1 - Load SMPLX:        1.11s
  Step 2 - Align FPS:         1.54s
  Step 3 - Init Retarget:     0.40s
  Step 4 - Init Visualization: 0.00s
  Step 5 - Process Frames:    8.22s (avg: 0.085s/frame)
  Step 6 - Convert Arrays:    0.00s
  Step 7 - Forward Kinematics: 0.53s
  Step 8 - Save Data:         0.00s
Status: SUCCESS
==================================================

=== SUCCESS LOG - 2025-10-14 17:27:02 ===
Input file: /data/retarget/locomotion/raw/AMASS_SMPLXG/KIT/3/jump_forward03_stageii.npz
Output file: ../robot/ik_based/pkl/012003.pkl
Robot type: unitree_g1
Processing time: 12.37 seconds

STEP-BY-STEP TIMING:
  Step 1 - Load SMPLX:        1.17s
  Step 2 - Align FPS:         1.16s
  Step 3 - Init Retarget:     0.57s
  Step 4 - Init Visualization: 0.00s
  Step 5 - Process Frames:    9.09s (avg: 0.090s/frame)
  Step 6 - Convert Arrays:    0.00s
  Step 7 - Forward Kinematics: 0.16s
  Step 8 - Save Data:         0.00s
Status: SUCCESS
==================================================

=== SUCCESS LOG - 2025-10-14 17:27:03 ===
Input file: /data/retarget/locomotion/raw/AMASS_SMPLXG/KIT/3/jump_forward05_stageii.npz
Output file: ../robot/ik_based/pkl/012005.pkl
Robot type: unitree_g1
Processing time: 12.25 seconds

STEP-BY-STEP TIMING:
  Step 1 - Load SMPLX:        1.11s
  Step 2 - Align FPS:         1.82s
  Step 3 - Init Retarget:     0.34s
  Step 4 - Init Visualization: 0.00s
  Step 5 - Process Frames:    8.70s (avg: 0.084s/frame)
  Step 6 - Convert Arrays:    0.00s
  Step 7 - Forward Kinematics: 0.21s
  Step 8 - Save Data:         0.00s
Status: SUCCESS
==================================================

=== SUCCESS LOG - 2025-10-14 17:27:14 ===
Input file: /data/retarget/locomotion/raw/AMASS_SMPLXG/KIT/3/jump_left02_stageii.npz
Output file: ../robot/ik_based/pkl/012007.pkl
Robot type: unitree_g1
Processing time: 11.63 seconds

STEP-BY-STEP TIMING:
  Step 1 - Load SMPLX:        1.05s
  Step 2 - Align FPS:         1.58s
  Step 3 - Init Retarget:     0.45s
  Step 4 - Init Visualization: 0.00s
  Step 5 - Process Frames:    7.58s (avg: 0.074s/frame)
  Step 6 - Convert Arrays:    0.00s
  Step 7 - Forward Kinematics: 0.46s
  Step 8 - Save Data:         0.01s
Status: SUCCESS
==================================================

=== SUCCESS LOG - 2025-10-14 17:27:15 ===
Input file: /data/retarget/locomotion/raw/AMASS_SMPLXG/KIT/3/jump_left03_stageii.npz
Output file: ../robot/ik_based/pkl/012008.pkl
Robot type: unitree_g1
Processing time: 12.46 seconds

STEP-BY-STEP TIMING:
  Step 1 - Load SMPLX:        1.70s
  Step 2 - Align FPS:         1.30s
  Step 3 - Init Retarget:     0.45s
  Step 4 - Init Visualization: 0.00s
  Step 5 - Process Frames:    8.61s (avg: 0.092s/frame)
  Step 6 - Convert Arrays:    0.00s
  Step 7 - Forward Kinematics: 0.21s
  Step 8 - Save Data:         0.01s
Status: SUCCESS
==================================================

=== SUCCESS LOG - 2025-10-14 17:27:15 ===
Input file: /data/retarget/locomotion/raw/AMASS_SMPLXG/KIT/3/jump_left01_stageii.npz
Output file: ../robot/ik_based/pkl/012006.pkl
Robot type: unitree_g1
Processing time: 12.97 seconds

STEP-BY-STEP TIMING:
  Step 1 - Load SMPLX:        1.18s
  Step 2 - Align FPS:         1.86s
  Step 3 - Init Retarget:     0.40s
  Step 4 - Init Visualization: 0.00s
  Step 5 - Process Frames:    9.33s (avg: 0.083s/frame)
  Step 6 - Convert Arrays:    0.00s
  Step 7 - Forward Kinematics: 0.02s
  Step 8 - Save Data:         0.00s
Status: SUCCESS
==================================================

=== SUCCESS LOG - 2025-10-14 17:27:26 ===
Input file: /data/retarget/locomotion/raw/AMASS_SMPLXG/KIT/3/jump_left04_stageii.npz
Output file: ../robot/ik_based/pkl/012009.pkl
Robot type: unitree_g1
Processing time: 11.68 seconds

STEP-BY-STEP TIMING:
  Step 1 - Load SMPLX:        1.65s
  Step 2 - Align FPS:         0.57s
  Step 3 - Init Retarget:     1.20s
  Step 4 - Init Visualization: 0.00s
  Step 5 - Process Frames:    6.92s (avg: 0.083s/frame)
  Step 6 - Convert Arrays:    0.00s
  Step 7 - Forward Kinematics: 0.71s
  Step 8 - Save Data:         0.01s
Status: SUCCESS
==================================================

=== SUCCESS LOG - 2025-10-14 17:27:29 ===
Input file: /data/retarget/locomotion/raw/AMASS_SMPLXG/KIT/3/jump_left05_stageii.npz
Output file: ../robot/ik_based/pkl/012010.pkl
Robot type: unitree_g1
Processing time: 13.25 seconds

STEP-BY-STEP TIMING:
  Step 1 - Load SMPLX:        1.59s
  Step 2 - Align FPS:         1.07s
  Step 3 - Init Retarget:     0.62s
  Step 4 - Init Visualization: 0.00s
  Step 5 - Process Frames:    9.60s (avg: 0.088s/frame)
  Step 6 - Convert Arrays:    0.00s
  Step 7 - Forward Kinematics: 0.26s
  Step 8 - Save Data:         0.00s
Status: SUCCESS
==================================================

=== SUCCESS LOG - 2025-10-14 17:27:29 ===
Input file: /data/retarget/locomotion/raw/AMASS_SMPLXG/KIT/3/jump_right01_stageii.npz
Output file: ../robot/ik_based/pkl/012011.pkl
Robot type: unitree_g1
Processing time: 13.10 seconds

STEP-BY-STEP TIMING:
  Step 1 - Load SMPLX:        1.61s
  Step 2 - Align FPS:         1.37s
  Step 3 - Init Retarget:     0.31s
  Step 4 - Init Visualization: 0.00s
  Step 5 - Process Frames:    9.63s (avg: 0.084s/frame)
  Step 6 - Convert Arrays:    0.00s
  Step 7 - Forward Kinematics: 0.14s
  Step 8 - Save Data:         0.00s
Status: SUCCESS
==================================================

=== SUCCESS LOG - 2025-10-14 17:27:40 ===
Input file: /data/retarget/locomotion/raw/AMASS_SMPLXG/KIT/3/jump_right02_stageii.npz
Output file: ../robot/ik_based/pkl/012012.pkl
Robot type: unitree_g1
Processing time: 13.63 seconds

STEP-BY-STEP TIMING:
  Step 1 - Load SMPLX:        2.60s
  Step 2 - Align FPS:         0.65s
  Step 3 - Init Retarget:     0.48s
  Step 4 - Init Visualization: 0.00s
  Step 5 - Process Frames:    8.90s (avg: 0.086s/frame)
  Step 6 - Convert Arrays:    0.00s
  Step 7 - Forward Kinematics: 0.48s
  Step 8 - Save Data:         0.01s
Status: SUCCESS
==================================================

=== SUCCESS LOG - 2025-10-14 17:27:43 ===
Input file: /data/retarget/locomotion/raw/AMASS_SMPLXG/KIT/3/jump_right04_stageii.npz
Output file: ../robot/ik_based/pkl/012014.pkl
Robot type: unitree_g1
Processing time: 13.66 seconds

STEP-BY-STEP TIMING:
  Step 1 - Load SMPLX:        1.80s
  Step 2 - Align FPS:         1.47s
  Step 3 - Init Retarget:     0.28s
  Step 4 - Init Visualization: 0.00s
  Step 5 - Process Frames:    9.79s (avg: 0.080s/frame)
  Step 6 - Convert Arrays:    0.00s
  Step 7 - Forward Kinematics: 0.22s
  Step 8 - Save Data:         0.00s
Status: SUCCESS
==================================================

=== SUCCESS LOG - 2025-10-14 17:27:43 ===
Input file: /data/retarget/locomotion/raw/AMASS_SMPLXG/KIT/3/jump_right03_stageii.npz
Output file: ../robot/ik_based/pkl/012013.pkl
Robot type: unitree_g1
Processing time: 13.88 seconds

STEP-BY-STEP TIMING:
  Step 1 - Load SMPLX:        1.70s
  Step 2 - Align FPS:         1.74s
  Step 3 - Init Retarget:     0.36s
  Step 4 - Init Visualization: 0.00s
  Step 5 - Process Frames:    9.94s (avg: 0.086s/frame)
  Step 6 - Convert Arrays:    0.00s
  Step 7 - Forward Kinematics: 0.11s
  Step 8 - Save Data:         0.00s
Status: SUCCESS
==================================================

=== SUCCESS LOG - 2025-10-14 17:27:54 ===
Input file: /data/retarget/locomotion/raw/AMASS_SMPLXG/KIT/3/jump_up01_stageii.npz
Output file: ../robot/ik_based/pkl/012015.pkl
Robot type: unitree_g1
Processing time: 12.83 seconds

STEP-BY-STEP TIMING:
  Step 1 - Load SMPLX:        2.67s
  Step 2 - Align FPS:         0.51s
  Step 3 - Init Retarget:     0.29s
  Step 4 - Init Visualization: 0.00s
  Step 5 - Process Frames:    8.65s (avg: 0.108s/frame)
  Step 6 - Convert Arrays:    0.00s
  Step 7 - Forward Kinematics: 0.38s
  Step 8 - Save Data:         0.01s
Status: SUCCESS
==================================================

=== SUCCESS LOG - 2025-10-14 17:27:55 ===
Input file: /data/retarget/locomotion/raw/AMASS_SMPLXG/KIT/3/jump_up02_stageii.npz
Output file: ../robot/ik_based/pkl/012016.pkl
Robot type: unitree_g1
Processing time: 12.14 seconds

STEP-BY-STEP TIMING:
  Step 1 - Load SMPLX:        1.43s
  Step 2 - Align FPS:         1.11s
  Step 3 - Init Retarget:     0.46s
  Step 4 - Init Visualization: 0.00s
  Step 5 - Process Frames:    8.93s (avg: 0.081s/frame)
  Step 6 - Convert Arrays:    0.00s
  Step 7 - Forward Kinematics: 0.16s
  Step 8 - Save Data:         0.00s
Status: SUCCESS
==================================================

=== SUCCESS LOG - 2025-10-14 17:27:55 ===
Input file: /data/retarget/locomotion/raw/AMASS_SMPLXG/KIT/3/jump_up03_stageii.npz
Output file: ../robot/ik_based/pkl/012017.pkl
Robot type: unitree_g1
Processing time: 12.15 seconds

STEP-BY-STEP TIMING:
  Step 1 - Load SMPLX:        1.92s
  Step 2 - Align FPS:         0.96s
  Step 3 - Init Retarget:     0.31s
  Step 4 - Init Visualization: 0.00s
  Step 5 - Process Frames:    8.83s (avg: 0.081s/frame)
  Step 6 - Convert Arrays:    0.00s
  Step 7 - Forward Kinematics: 0.02s
  Step 8 - Save Data:         0.00s
Status: SUCCESS
==================================================

=== SUCCESS LOG - 2025-10-14 17:28:08 ===
Input file: /data/retarget/locomotion/raw/AMASS_SMPLXG/KIT/3/jump_up05_stageii.npz
Output file: ../robot/ik_based/pkl/012019.pkl
Robot type: unitree_g1
Processing time: 12.65 seconds

STEP-BY-STEP TIMING:
  Step 1 - Load SMPLX:        1.39s
  Step 2 - Align FPS:         1.64s
  Step 3 - Init Retarget:     0.30s
  Step 4 - Init Visualization: 0.00s
  Step 5 - Process Frames:    8.46s (avg: 0.083s/frame)
  Step 6 - Convert Arrays:    0.00s
  Step 7 - Forward Kinematics: 0.42s
  Step 8 - Save Data:         0.02s
Status: SUCCESS
==================================================

=== SUCCESS LOG - 2025-10-14 17:28:10 ===
Input file: /data/retarget/locomotion/raw/AMASS_SMPLXG/KIT/3/jump_up04_stageii.npz
Output file: ../robot/ik_based/pkl/012018.pkl
Robot type: unitree_g1
Processing time: 15.93 seconds

STEP-BY-STEP TIMING:
  Step 1 - Load SMPLX:        2.16s
  Step 2 - Align FPS:         2.21s
  Step 3 - Init Retarget:     0.40s
  Step 4 - Init Visualization: 0.00s
  Step 5 - Process Frames:    10.81s (avg: 0.075s/frame)
  Step 6 - Convert Arrays:    0.00s
  Step 7 - Forward Kinematics: 0.19s
  Step 8 - Save Data:         0.01s
Status: SUCCESS
==================================================

=== SUCCESS LOG - 2025-10-14 17:28:10 ===
Input file: /data/retarget/locomotion/raw/AMASS_SMPLXG/KIT/3/kick_high_left01_stageii.npz
Output file: ../robot/ik_based/pkl/012020.pkl
Robot type: unitree_g1
Processing time: 15.10 seconds

STEP-BY-STEP TIMING:
  Step 1 - Load SMPLX:        1.33s
  Step 2 - Align FPS:         1.92s
  Step 3 - Init Retarget:     0.27s
  Step 4 - Init Visualization: 0.00s
  Step 5 - Process Frames:    11.52s (avg: 0.087s/frame)
  Step 6 - Convert Arrays:    0.00s
  Step 7 - Forward Kinematics: 0.03s
  Step 8 - Save Data:         0.00s
Status: SUCCESS
==================================================

=== SUCCESS LOG - 2025-10-14 17:28:29 ===
Input file: /data/retarget/locomotion/raw/AMASS_SMPLXG/KIT/3/kick_high_left02_stageii.npz
Output file: ../robot/ik_based/pkl/012021.pkl
Robot type: unitree_g1
Processing time: 20.59 seconds

STEP-BY-STEP TIMING:
  Step 1 - Load SMPLX:        2.79s
  Step 2 - Align FPS:         0.91s
  Step 3 - Init Retarget:     0.62s
  Step 4 - Init Visualization: 0.00s
  Step 5 - Process Frames:    15.34s (avg: 0.106s/frame)
  Step 6 - Convert Arrays:    0.00s
  Step 7 - Forward Kinematics: 0.50s
  Step 8 - Save Data:         0.01s
Status: SUCCESS
==================================================

=== SUCCESS LOG - 2025-10-14 17:28:29 ===
Input file: /data/retarget/locomotion/raw/AMASS_SMPLXG/KIT/3/kick_high_left03_stageii.npz
Output file: ../robot/ik_based/pkl/012022.pkl
Robot type: unitree_g1
Processing time: 19.44 seconds

STEP-BY-STEP TIMING:
  Step 1 - Load SMPLX:        2.11s
  Step 2 - Align FPS:         1.85s
  Step 3 - Init Retarget:     0.45s
  Step 4 - Init Visualization: 0.00s
  Step 5 - Process Frames:    14.73s (avg: 0.094s/frame)
  Step 6 - Convert Arrays:    0.00s
  Step 7 - Forward Kinematics: 0.25s
  Step 8 - Save Data:         0.00s
Status: SUCCESS
==================================================

=== SUCCESS LOG - 2025-10-14 17:28:29 ===
Input file: /data/retarget/locomotion/raw/AMASS_SMPLXG/KIT/3/kick_high_left04_stageii.npz
Output file: ../robot/ik_based/pkl/012023.pkl
Robot type: unitree_g1
Processing time: 18.98 seconds

STEP-BY-STEP TIMING:
  Step 1 - Load SMPLX:        2.35s
  Step 2 - Align FPS:         1.44s
  Step 3 - Init Retarget:     0.43s
  Step 4 - Init Visualization: 0.00s
  Step 5 - Process Frames:    14.59s (avg: 0.103s/frame)
  Step 6 - Convert Arrays:    0.00s
  Step 7 - Forward Kinematics: 0.04s
  Step 8 - Save Data:         0.00s
Status: SUCCESS
==================================================

=== SUCCESS LOG - 2025-10-14 17:28:44 ===
Input file: /data/retarget/locomotion/raw/AMASS_SMPLXG/KIT/3/kick_high_right01_stageii.npz
Output file: ../robot/ik_based/pkl/012025.pkl
Robot type: unitree_g1
Processing time: 14.18 seconds

STEP-BY-STEP TIMING:
  Step 1 - Load SMPLX:        1.27s
  Step 2 - Align FPS:         1.70s
  Step 3 - Init Retarget:     0.43s
  Step 4 - Init Visualization: 0.00s
  Step 5 - Process Frames:    10.35s (avg: 0.088s/frame)
  Step 6 - Convert Arrays:    0.00s
  Step 7 - Forward Kinematics: 0.20s
  Step 8 - Save Data:         0.00s
Status: SUCCESS
==================================================

=== SUCCESS LOG - 2025-10-14 17:28:45 ===
Input file: /data/retarget/locomotion/raw/AMASS_SMPLXG/KIT/3/kick_high_right02_stageii.npz
Output file: ../robot/ik_based/pkl/012026.pkl
Robot type: unitree_g1
Processing time: 15.66 seconds

STEP-BY-STEP TIMING:
  Step 1 - Load SMPLX:        1.47s
  Step 2 - Align FPS:         2.26s
  Step 3 - Init Retarget:     0.34s
  Step 4 - Init Visualization: 0.00s
  Step 5 - Process Frames:    11.32s (avg: 0.099s/frame)
  Step 6 - Convert Arrays:    0.00s
  Step 7 - Forward Kinematics: 0.13s
  Step 8 - Save Data:         0.00s
Status: SUCCESS
==================================================

=== SUCCESS LOG - 2025-10-14 17:28:46 ===
Input file: /data/retarget/locomotion/raw/AMASS_SMPLXG/KIT/3/kick_high_left05_stageii.npz
Output file: ../robot/ik_based/pkl/012024.pkl
Robot type: unitree_g1
Processing time: 16.71 seconds

STEP-BY-STEP TIMING:
  Step 1 - Load SMPLX:        1.57s
  Step 2 - Align FPS:         2.32s
  Step 3 - Init Retarget:     0.51s
  Step 4 - Init Visualization: 0.00s
  Step 5 - Process Frames:    12.24s (avg: 0.078s/frame)
  Step 6 - Convert Arrays:    0.00s
  Step 7 - Forward Kinematics: 0.02s
  Step 8 - Save Data:         0.00s
Status: SUCCESS
==================================================

=== SUCCESS LOG - 2025-10-14 17:29:00 ===
Input file: /data/retarget/locomotion/raw/AMASS_SMPLXG/KIT/3/kick_high_right03_stageii.npz
Output file: ../robot/ik_based/pkl/012027.pkl
Robot type: unitree_g1
Processing time: 15.87 seconds

STEP-BY-STEP TIMING:
  Step 1 - Load SMPLX:        2.26s
  Step 2 - Align FPS:         0.69s
  Step 3 - Init Retarget:     0.25s
  Step 4 - Init Visualization: 0.00s
  Step 5 - Process Frames:    11.93s (avg: 0.106s/frame)
  Step 6 - Convert Arrays:    0.00s
  Step 7 - Forward Kinematics: 0.39s
  Step 8 - Save Data:         0.01s
Status: SUCCESS
==================================================

=== SUCCESS LOG - 2025-10-14 17:29:00 ===
Input file: /data/retarget/locomotion/raw/AMASS_SMPLXG/KIT/3/kick_low_left01_stageii.npz
Output file: ../robot/ik_based/pkl/012029.pkl
Robot type: unitree_g1
Processing time: 14.58 seconds

STEP-BY-STEP TIMING:
  Step 1 - Load SMPLX:        2.32s
  Step 2 - Align FPS:         1.14s
  Step 3 - Init Retarget:     0.36s
  Step 4 - Init Visualization: 0.00s
  Step 5 - Process Frames:    10.39s (avg: 0.090s/frame)
  Step 6 - Convert Arrays:    0.00s
  Step 7 - Forward Kinematics: 0.19s
  Step 8 - Save Data:         0.00s
Status: SUCCESS
==================================================

=== SUCCESS LOG - 2025-10-14 17:29:01 ===
Input file: /data/retarget/locomotion/raw/AMASS_SMPLXG/KIT/3/kick_high_right04_stageii.npz
Output file: ../robot/ik_based/pkl/012028.pkl
Robot type: unitree_g1
Processing time: 15.00 seconds

STEP-BY-STEP TIMING:
  Step 1 - Load SMPLX:        1.73s
  Step 2 - Align FPS:         0.82s
  Step 3 - Init Retarget:     0.53s
  Step 4 - Init Visualization: 0.00s
  Step 5 - Process Frames:    11.85s (avg: 0.097s/frame)
  Step 6 - Convert Arrays:    0.00s
  Step 7 - Forward Kinematics: 0.02s
  Step 8 - Save Data:         0.00s
Status: SUCCESS
==================================================

=== SUCCESS LOG - 2025-10-14 17:29:16 ===
Input file: /data/retarget/locomotion/raw/AMASS_SMPLXG/KIT/3/kick_low_left02_stageii.npz
Output file: ../robot/ik_based/pkl/012030.pkl
Robot type: unitree_g1
Processing time: 15.72 seconds

STEP-BY-STEP TIMING:
  Step 1 - Load SMPLX:        1.42s
  Step 2 - Align FPS:         1.16s
  Step 3 - Init Retarget:     0.65s
  Step 4 - Init Visualization: 0.00s
  Step 5 - Process Frames:    12.24s (avg: 0.102s/frame)
  Step 6 - Convert Arrays:    0.00s
  Step 7 - Forward Kinematics: 0.19s
  Step 8 - Save Data:         0.00s
Status: SUCCESS
==================================================

=== SUCCESS LOG - 2025-10-14 17:29:16 ===
Input file: /data/retarget/locomotion/raw/AMASS_SMPLXG/KIT/3/kick_low_left04_stageii.npz
Output file: ../robot/ik_based/pkl/012032.pkl
Robot type: unitree_g1
Processing time: 15.12 seconds

STEP-BY-STEP TIMING:
  Step 1 - Load SMPLX:        1.89s
  Step 2 - Align FPS:         1.12s
  Step 3 - Init Retarget:     0.31s
  Step 4 - Init Visualization: 0.00s
  Step 5 - Process Frames:    11.60s (avg: 0.100s/frame)
  Step 6 - Convert Arrays:    0.00s
  Step 7 - Forward Kinematics: 0.07s
  Step 8 - Save Data:         0.00s
Status: SUCCESS
==================================================

=== SUCCESS LOG - 2025-10-14 17:29:16 ===
Input file: /data/retarget/locomotion/raw/AMASS_SMPLXG/KIT/3/kick_low_left03_stageii.npz
Output file: ../robot/ik_based/pkl/012031.pkl
Robot type: unitree_g1
Processing time: 15.28 seconds

STEP-BY-STEP TIMING:
  Step 1 - Load SMPLX:        1.37s
  Step 2 - Align FPS:         2.11s
  Step 3 - Init Retarget:     0.27s
  Step 4 - Init Visualization: 0.00s
  Step 5 - Process Frames:    11.25s (avg: 0.089s/frame)
  Step 6 - Convert Arrays:    0.00s
  Step 7 - Forward Kinematics: 0.03s
  Step 8 - Save Data:         0.02s
Status: SUCCESS
==================================================

=== SUCCESS LOG - 2025-10-14 17:29:29 ===
Input file: /data/retarget/locomotion/raw/AMASS_SMPLXG/KIT/3/kick_low_right01_stageii.npz
Output file: ../robot/ik_based/pkl/012034.pkl
Robot type: unitree_g1
Processing time: 12.45 seconds

STEP-BY-STEP TIMING:
  Step 1 - Load SMPLX:        1.08s
  Step 2 - Align FPS:         0.98s
  Step 3 - Init Retarget:     0.46s
  Step 4 - Init Visualization: 0.00s
  Step 5 - Process Frames:    9.14s (avg: 0.088s/frame)
  Step 6 - Convert Arrays:    0.00s
  Step 7 - Forward Kinematics: 0.39s
  Step 8 - Save Data:         0.01s
Status: SUCCESS
==================================================

=== SUCCESS LOG - 2025-10-14 17:29:29 ===
Input file: /data/retarget/locomotion/raw/AMASS_SMPLXG/KIT/3/kick_low_right02_stageii.npz
Output file: ../robot/ik_based/pkl/012035.pkl
Robot type: unitree_g1
Processing time: 13.04 seconds

STEP-BY-STEP TIMING:
  Step 1 - Load SMPLX:        1.03s
  Step 2 - Align FPS:         1.34s
  Step 3 - Init Retarget:     0.58s
  Step 4 - Init Visualization: 0.00s
  Step 5 - Process Frames:    9.70s (avg: 0.089s/frame)
  Step 6 - Convert Arrays:    0.00s
  Step 7 - Forward Kinematics: 0.19s
  Step 8 - Save Data:         0.00s
Status: SUCCESS
==================================================

=== SUCCESS LOG - 2025-10-14 17:29:30 ===
Input file: /data/retarget/locomotion/raw/AMASS_SMPLXG/KIT/3/kick_low_left05_stageii.npz
Output file: ../robot/ik_based/pkl/012033.pkl
Robot type: unitree_g1
Processing time: 13.97 seconds

STEP-BY-STEP TIMING:
  Step 1 - Load SMPLX:        2.19s
  Step 2 - Align FPS:         1.75s
  Step 3 - Init Retarget:     0.32s
  Step 4 - Init Visualization: 0.00s
  Step 5 - Process Frames:    9.65s (avg: 0.072s/frame)
  Step 6 - Convert Arrays:    0.00s
  Step 7 - Forward Kinematics: 0.03s
  Step 8 - Save Data:         0.00s
Status: SUCCESS
==================================================

=== SUCCESS LOG - 2025-10-14 17:29:48 ===
Input file: /data/retarget/locomotion/raw/AMASS_SMPLXG/KIT/3/kick_low_right03_stageii.npz
Output file: ../robot/ik_based/pkl/012036.pkl
Robot type: unitree_g1
Processing time: 19.01 seconds

STEP-BY-STEP TIMING:
  Step 1 - Load SMPLX:        1.93s
  Step 2 - Align FPS:         1.31s
  Step 3 - Init Retarget:     0.37s
  Step 4 - Init Visualization: 0.00s
  Step 5 - Process Frames:    15.25s (avg: 0.094s/frame)
  Step 6 - Convert Arrays:    0.00s
  Step 7 - Forward Kinematics: 0.09s
  Step 8 - Save Data:         0.00s
Status: SUCCESS
==================================================

=== SUCCESS LOG - 2025-10-14 17:29:48 ===
Input file: /data/retarget/locomotion/raw/AMASS_SMPLXG/KIT/3/kick_low_right05_stageii.npz
Output file: ../robot/ik_based/pkl/012038.pkl
Robot type: unitree_g1
Processing time: 17.55 seconds

STEP-BY-STEP TIMING:
  Step 1 - Load SMPLX:        2.68s
  Step 2 - Align FPS:         1.33s
  Step 3 - Init Retarget:     0.32s
  Step 4 - Init Visualization: 0.00s
  Step 5 - Process Frames:    13.11s (avg: 0.105s/frame)
  Step 6 - Convert Arrays:    0.00s
  Step 7 - Forward Kinematics: 0.06s
  Step 8 - Save Data:         0.00s
Status: SUCCESS
==================================================

=== SUCCESS LOG - 2025-10-14 17:29:48 ===
Input file: /data/retarget/locomotion/raw/AMASS_SMPLXG/KIT/3/kick_low_right04_stageii.npz
Output file: ../robot/ik_based/pkl/012037.pkl
Robot type: unitree_g1
Processing time: 18.63 seconds

STEP-BY-STEP TIMING:
  Step 1 - Load SMPLX:        2.09s
  Step 2 - Align FPS:         1.33s
  Step 3 - Init Retarget:     0.51s
  Step 4 - Init Visualization: 0.00s
  Step 5 - Process Frames:    14.42s (avg: 0.099s/frame)
  Step 6 - Convert Arrays:    0.00s
  Step 7 - Forward Kinematics: 0.03s
  Step 8 - Save Data:         0.00s
Status: SUCCESS
==================================================

=== SUCCESS LOG - 2025-10-14 17:30:08 ===
Input file: /data/retarget/locomotion/raw/AMASS_SMPLXG/KIT/3/kneel_down_to_crawl02_stageii.npz
Output file: ../robot/ik_based/pkl/012040.pkl
Robot type: unitree_g1
Processing time: 19.50 seconds

STEP-BY-STEP TIMING:
  Step 1 - Load SMPLX:        1.18s
  Step 2 - Align FPS:         2.20s
  Step 3 - Init Retarget:     0.49s
  Step 4 - Init Visualization: 0.03s
  Step 5 - Process Frames:    14.70s (avg: 0.112s/frame)
  Step 6 - Convert Arrays:    0.00s
  Step 7 - Forward Kinematics: 0.46s
  Step 8 - Save Data:         0.01s
Status: SUCCESS
==================================================

=== SUCCESS LOG - 2025-10-14 17:30:10 ===
Input file: /data/retarget/locomotion/raw/AMASS_SMPLXG/KIT/3/kneel_down_to_crawl03_stageii.npz
Output file: ../robot/ik_based/pkl/012041.pkl
Robot type: unitree_g1
Processing time: 21.06 seconds

STEP-BY-STEP TIMING:
  Step 1 - Load SMPLX:        1.37s
  Step 2 - Align FPS:         2.20s
  Step 3 - Init Retarget:     0.39s
  Step 4 - Init Visualization: 0.00s
  Step 5 - Process Frames:    16.64s (avg: 0.115s/frame)
  Step 6 - Convert Arrays:    0.00s
  Step 7 - Forward Kinematics: 0.23s
  Step 8 - Save Data:         0.01s
Status: SUCCESS
==================================================

=== SUCCESS LOG - 2025-10-14 17:30:10 ===
Input file: /data/retarget/locomotion/raw/AMASS_SMPLXG/KIT/3/kneel_down_to_crawl01_stageii.npz
Output file: ../robot/ik_based/pkl/012039.pkl
Robot type: unitree_g1
Processing time: 22.07 seconds

STEP-BY-STEP TIMING:
  Step 1 - Load SMPLX:        1.36s
  Step 2 - Align FPS:         2.63s
  Step 3 - Init Retarget:     0.33s
  Step 4 - Init Visualization: 0.00s
  Step 5 - Process Frames:    17.69s (avg: 0.110s/frame)
  Step 6 - Convert Arrays:    0.00s
  Step 7 - Forward Kinematics: 0.02s
  Step 8 - Save Data:         0.00s
Status: SUCCESS
==================================================

=== SUCCESS LOG - 2025-10-14 17:30:28 ===
Input file: /data/retarget/locomotion/raw/AMASS_SMPLXG/KIT/3/kneel_down_to_crawl04_stageii.npz
Output file: ../robot/ik_based/pkl/012042.pkl
Robot type: unitree_g1
Processing time: 20.00 seconds

STEP-BY-STEP TIMING:
  Step 1 - Load SMPLX:        2.91s
  Step 2 - Align FPS:         0.92s
  Step 3 - Init Retarget:     0.40s
  Step 4 - Init Visualization: 0.00s
  Step 5 - Process Frames:    15.21s (avg: 0.113s/frame)
  Step 6 - Convert Arrays:    0.00s
  Step 7 - Forward Kinematics: 0.32s
  Step 8 - Save Data:         0.00s
Status: SUCCESS
==================================================

=== SUCCESS LOG - 2025-10-14 17:30:28 ===
Input file: /data/retarget/locomotion/raw/AMASS_SMPLXG/KIT/3/kneel_down_to_crawl05_stageii.npz
Output file: ../robot/ik_based/pkl/012043.pkl
Robot type: unitree_g1
Processing time: 18.65 seconds

STEP-BY-STEP TIMING:
  Step 1 - Load SMPLX:        2.30s
  Step 2 - Align FPS:         0.95s
  Step 3 - Init Retarget:     0.28s
  Step 4 - Init Visualization: 0.00s
  Step 5 - Process Frames:    14.72s (avg: 0.120s/frame)
  Step 6 - Convert Arrays:    0.00s
  Step 7 - Forward Kinematics: 0.25s
  Step 8 - Save Data:         0.00s
Status: SUCCESS
==================================================

=== SUCCESS LOG - 2025-10-14 17:30:30 ===
Input file: /data/retarget/locomotion/raw/AMASS_SMPLXG/KIT/3/kneel_down_to_crawl06_stageii.npz
Output file: ../robot/ik_based/pkl/012044.pkl
Robot type: unitree_g1
Processing time: 19.23 seconds

STEP-BY-STEP TIMING:
  Step 1 - Load SMPLX:        2.71s
  Step 2 - Align FPS:         1.73s
  Step 3 - Init Retarget:     0.31s
  Step 4 - Init Visualization: 0.00s
  Step 5 - Process Frames:    14.43s (avg: 0.103s/frame)
  Step 6 - Convert Arrays:    0.00s
  Step 7 - Forward Kinematics: 0.02s
  Step 8 - Save Data:         0.00s
Status: SUCCESS
==================================================

=== SUCCESS LOG - 2025-10-14 17:30:46 ===
Input file: /data/retarget/locomotion/raw/AMASS_SMPLXG/KIT/3/kneel_down_to_crawl08_stageii.npz
Output file: ../robot/ik_based/pkl/012046.pkl
Robot type: unitree_g1
Processing time: 17.46 seconds

STEP-BY-STEP TIMING:
  Step 1 - Load SMPLX:        1.96s
  Step 2 - Align FPS:         1.33s
  Step 3 - Init Retarget:     0.32s
  Step 4 - Init Visualization: 0.00s
  Step 5 - Process Frames:    13.29s (avg: 0.107s/frame)
  Step 6 - Convert Arrays:    0.00s
  Step 7 - Forward Kinematics: 0.29s
  Step 8 - Save Data:         0.01s
Status: SUCCESS
==================================================

=== SUCCESS LOG - 2025-10-14 17:30:49 ===
Input file: /data/retarget/locomotion/raw/AMASS_SMPLXG/KIT/3/kneel_down_to_crawl07_stageii.npz
Output file: ../robot/ik_based/pkl/012045.pkl
Robot type: unitree_g1
Processing time: 21.10 seconds

STEP-BY-STEP TIMING:
  Step 1 - Load SMPLX:        2.11s
  Step 2 - Align FPS:         1.70s
  Step 3 - Init Retarget:     0.29s
  Step 4 - Init Visualization: 0.00s
  Step 5 - Process Frames:    16.53s (avg: 0.109s/frame)
  Step 6 - Convert Arrays:    0.00s
  Step 7 - Forward Kinematics: 0.23s
  Step 8 - Save Data:         0.01s
Status: SUCCESS
==================================================

=== SUCCESS LOG - 2025-10-14 17:31:03 ===
Input file: /data/retarget/locomotion/raw/AMASS_SMPLXG/KIT/3/kneel_down_with_both_hands01_stageii.npz
Output file: ../robot/ik_based/pkl/012047.pkl
Robot type: unitree_g1
Processing time: 32.97 seconds

STEP-BY-STEP TIMING:
  Step 1 - Load SMPLX:        3.97s
  Step 2 - Align FPS:         2.22s
  Step 3 - Init Retarget:     0.32s
  Step 4 - Init Visualization: 0.00s
  Step 5 - Process Frames:    25.39s (avg: 0.107s/frame)
  Step 6 - Convert Arrays:    0.00s
  Step 7 - Forward Kinematics: 0.61s
  Step 8 - Save Data:         0.01s
Status: SUCCESS
==================================================

=== SUCCESS LOG - 2025-10-14 17:31:20 ===
Input file: /data/retarget/locomotion/raw/AMASS_SMPLXG/KIT/3/kneel_down_with_both_hands02_stageii.npz
Output file: ../robot/ik_based/pkl/012048.pkl
Robot type: unitree_g1
Processing time: 33.58 seconds

STEP-BY-STEP TIMING:
  Step 1 - Load SMPLX:        4.09s
  Step 2 - Align FPS:         1.96s
  Step 3 - Init Retarget:     0.36s
  Step 4 - Init Visualization: 0.00s
  Step 5 - Process Frames:    26.10s (avg: 0.124s/frame)
  Step 6 - Convert Arrays:    0.00s
  Step 7 - Forward Kinematics: 0.54s
  Step 8 - Save Data:         0.01s
Status: SUCCESS
==================================================

=== SUCCESS LOG - 2025-10-14 17:31:29 ===
Input file: /data/retarget/locomotion/raw/AMASS_SMPLXG/KIT/3/kneel_down_with_both_hands04_stageii.npz
Output file: ../robot/ik_based/pkl/012050.pkl
Robot type: unitree_g1
Processing time: 25.44 seconds

STEP-BY-STEP TIMING:
  Step 1 - Load SMPLX:        4.29s
  Step 2 - Align FPS:         1.57s
  Step 3 - Init Retarget:     0.31s
  Step 4 - Init Visualization: 0.00s
  Step 5 - Process Frames:    17.61s (avg: 0.130s/frame)
  Step 6 - Convert Arrays:    0.00s
  Step 7 - Forward Kinematics: 0.86s
  Step 8 - Save Data:         0.01s
Status: SUCCESS
==================================================

=== SUCCESS LOG - 2025-10-14 17:31:32 ===
Input file: /data/retarget/locomotion/raw/AMASS_SMPLXG/KIT/3/kneel_down_with_both_hands03_stageii.npz
Output file: ../robot/ik_based/pkl/012049.pkl
Robot type: unitree_g1
Processing time: 42.25 seconds

STEP-BY-STEP TIMING:
  Step 1 - Load SMPLX:        4.57s
  Step 2 - Align FPS:         3.14s
  Step 3 - Init Retarget:     0.36s
  Step 4 - Init Visualization: 0.00s
  Step 5 - Process Frames:    33.76s (avg: 0.115s/frame)
  Step 6 - Convert Arrays:    0.00s
  Step 7 - Forward Kinematics: 0.23s
  Step 8 - Save Data:         0.01s
Status: SUCCESS
==================================================

=== SUCCESS LOG - 2025-10-14 17:31:41 ===
Input file: /data/retarget/locomotion/raw/AMASS_SMPLXG/KIT/3/kneel_down_with_both_hands05_stageii.npz
Output file: ../robot/ik_based/pkl/012051.pkl
Robot type: unitree_g1
Processing time: 20.59 seconds

STEP-BY-STEP TIMING:
  Step 1 - Load SMPLX:        4.40s
  Step 2 - Align FPS:         1.79s
  Step 3 - Init Retarget:     0.29s
  Step 4 - Init Visualization: 0.00s
  Step 5 - Process Frames:    13.03s (avg: 0.090s/frame)
  Step 6 - Convert Arrays:    0.00s
  Step 7 - Forward Kinematics: 0.31s
  Step 8 - Save Data:         0.03s
Status: SUCCESS
==================================================

=== SUCCESS LOG - 2025-10-14 17:31:57 ===
Input file: /data/retarget/locomotion/raw/AMASS_SMPLXG/KIT/3/kneel_down_with_both_hands08_stageii.npz
Output file: ../robot/ik_based/pkl/012053.pkl
Robot type: unitree_g1
Processing time: 24.85 seconds

STEP-BY-STEP TIMING:
  Step 1 - Load SMPLX:        3.65s
  Step 2 - Align FPS:         1.52s
  Step 3 - Init Retarget:     0.33s
  Step 4 - Init Visualization: 0.00s
  Step 5 - Process Frames:    18.70s (avg: 0.130s/frame)
  Step 6 - Convert Arrays:    0.00s
  Step 7 - Forward Kinematics: 0.37s
  Step 8 - Save Data:         0.01s
Status: SUCCESS
==================================================

=== SUCCESS LOG - 2025-10-14 17:31:57 ===
Input file: /data/retarget/locomotion/raw/AMASS_SMPLXG/KIT/3/kneel_down_with_both_hands07_stageii.npz
Output file: ../robot/ik_based/pkl/012052.pkl
Robot type: unitree_g1
Processing time: 28.19 seconds

STEP-BY-STEP TIMING:
  Step 1 - Load SMPLX:        4.25s
  Step 2 - Align FPS:         1.37s
  Step 3 - Init Retarget:     0.31s
  Step 4 - Init Visualization: 0.00s
  Step 5 - Process Frames:    21.70s (avg: 0.140s/frame)
  Step 6 - Convert Arrays:    0.00s
  Step 7 - Forward Kinematics: 0.30s
  Step 8 - Save Data:         0.00s
Status: SUCCESS
==================================================

=== SUCCESS LOG - 2025-10-14 17:32:09 ===
Input file: /data/retarget/locomotion/raw/AMASS_SMPLXG/KIT/3/kneel_down_with_both_hands09_stageii.npz
Output file: ../robot/ik_based/pkl/012054.pkl
Robot type: unitree_g1
Processing time: 28.26 seconds

STEP-BY-STEP TIMING:
  Step 1 - Load SMPLX:        5.04s
  Step 2 - Align FPS:         2.33s
  Step 3 - Init Retarget:     0.29s
  Step 4 - Init Visualization: 0.00s
  Step 5 - Process Frames:    19.28s (avg: 0.112s/frame)
  Step 6 - Convert Arrays:    0.00s
  Step 7 - Forward Kinematics: 0.54s
  Step 8 - Save Data:         0.01s
Status: SUCCESS
==================================================

=== SUCCESS LOG - 2025-10-14 17:32:22 ===
Input file: /data/retarget/locomotion/raw/AMASS_SMPLXG/KIT/3/kneel_down_with_both_hands11_stageii.npz
Output file: ../robot/ik_based/pkl/012056.pkl
Robot type: unitree_g1
Processing time: 24.71 seconds

STEP-BY-STEP TIMING:
  Step 1 - Load SMPLX:        2.66s
  Step 2 - Align FPS:         2.37s
  Step 3 - Init Retarget:     0.35s
  Step 4 - Init Visualization: 0.00s
  Step 5 - Process Frames:    18.37s (avg: 0.136s/frame)
  Step 6 - Convert Arrays:    0.00s
  Step 7 - Forward Kinematics: 0.53s
  Step 8 - Save Data:         0.01s
Status: SUCCESS
==================================================

=== SUCCESS LOG - 2025-10-14 17:32:33 ===
Input file: /data/retarget/locomotion/raw/AMASS_SMPLXG/KIT/3/kneel_down_with_both_hands10_stageii.npz
Output file: ../robot/ik_based/pkl/012055.pkl
Robot type: unitree_g1
Processing time: 35.12 seconds

STEP-BY-STEP TIMING:
  Step 1 - Load SMPLX:        2.68s
  Step 2 - Align FPS:         3.17s
  Step 3 - Init Retarget:     0.25s
  Step 4 - Init Visualization: 0.00s
  Step 5 - Process Frames:    27.88s (avg: 0.144s/frame)
  Step 6 - Convert Arrays:    0.00s
  Step 7 - Forward Kinematics: 0.59s
  Step 8 - Save Data:         0.02s
Status: SUCCESS
==================================================

=== SUCCESS LOG - 2025-10-14 17:32:50 ===
Input file: /data/retarget/locomotion/raw/AMASS_SMPLXG/KIT/3/kneel_down_with_left_hand01_stageii.npz
Output file: ../robot/ik_based/pkl/012057.pkl
Robot type: unitree_g1
Processing time: 40.59 seconds

STEP-BY-STEP TIMING:
  Step 1 - Load SMPLX:        3.74s
  Step 2 - Align FPS:         3.92s
  Step 3 - Init Retarget:     0.26s
  Step 4 - Init Visualization: 0.00s
  Step 5 - Process Frames:    31.55s (avg: 0.130s/frame)
  Step 6 - Convert Arrays:    0.00s
  Step 7 - Forward Kinematics: 0.56s
  Step 8 - Save Data:         0.01s
Status: SUCCESS
==================================================

=== SUCCESS LOG - 2025-10-14 17:32:52 ===
Input file: /data/retarget/locomotion/raw/AMASS_SMPLXG/KIT/3/kneel_down_with_left_hand02_stageii.npz
Output file: ../robot/ik_based/pkl/012058.pkl
Robot type: unitree_g1
Processing time: 29.89 seconds

STEP-BY-STEP TIMING:
  Step 1 - Load SMPLX:        3.05s
  Step 2 - Align FPS:         2.73s
  Step 3 - Init Retarget:     0.28s
  Step 4 - Init Visualization: 0.00s
  Step 5 - Process Frames:    23.32s (avg: 0.101s/frame)
  Step 6 - Convert Arrays:    0.00s
  Step 7 - Forward Kinematics: 0.27s
  Step 8 - Save Data:         0.01s
Status: SUCCESS
==================================================

=== SUCCESS LOG - 2025-10-14 17:33:04 ===
Input file: /data/retarget/locomotion/raw/AMASS_SMPLXG/KIT/3/kneel_down_with_left_hand03_stageii.npz
Output file: ../robot/ik_based/pkl/012059.pkl
Robot type: unitree_g1
Processing time: 30.97 seconds

STEP-BY-STEP TIMING:
  Step 1 - Load SMPLX:        5.13s
  Step 2 - Align FPS:         3.81s
  Step 3 - Init Retarget:     0.29s
  Step 4 - Init Visualization: 0.00s
  Step 5 - Process Frames:    20.75s (avg: 0.093s/frame)
  Step 6 - Convert Arrays:    0.00s
  Step 7 - Forward Kinematics: 0.46s
  Step 8 - Save Data:         0.01s
Status: SUCCESS
==================================================

=== SUCCESS LOG - 2025-10-14 17:33:27 ===
Input file: /data/retarget/locomotion/raw/AMASS_SMPLXG/KIT/3/kneel_down_with_left_hand04_stageii.npz
Output file: ../robot/ik_based/pkl/012060.pkl
Robot type: unitree_g1
Processing time: 36.72 seconds

STEP-BY-STEP TIMING:
  Step 1 - Load SMPLX:        3.39s
  Step 2 - Align FPS:         1.95s
  Step 3 - Init Retarget:     0.25s
  Step 4 - Init Visualization: 0.00s
  Step 5 - Process Frames:    30.49s (avg: 0.135s/frame)
  Step 6 - Convert Arrays:    0.00s
  Step 7 - Forward Kinematics: 0.36s
  Step 8 - Save Data:         0.01s
Status: SUCCESS
==================================================

=== SUCCESS LOG - 2025-10-14 17:33:30 ===
Input file: /data/retarget/locomotion/raw/AMASS_SMPLXG/KIT/3/kneel_down_with_left_hand05_stageii.npz
Output file: ../robot/ik_based/pkl/012061.pkl
Robot type: unitree_g1
Processing time: 37.21 seconds

STEP-BY-STEP TIMING:
  Step 1 - Load SMPLX:        4.33s
  Step 2 - Align FPS:         2.39s
  Step 3 - Init Retarget:     0.30s
  Step 4 - Init Visualization: 0.00s
  Step 5 - Process Frames:    29.71s (avg: 0.136s/frame)
  Step 6 - Convert Arrays:    0.00s
  Step 7 - Forward Kinematics: 0.23s
  Step 8 - Save Data:         0.01s
Status: SUCCESS
==================================================

=== SUCCESS LOG - 2025-10-14 17:33:33 ===
Input file: /data/retarget/locomotion/raw/AMASS_SMPLXG/KIT/3/kneel_down_with_left_hand06_stageii.npz
Output file: ../robot/ik_based/pkl/012062.pkl
Robot type: unitree_g1
Processing time: 29.16 seconds

STEP-BY-STEP TIMING:
  Step 1 - Load SMPLX:        4.84s
  Step 2 - Align FPS:         2.13s
  Step 3 - Init Retarget:     0.38s
  Step 4 - Init Visualization: 0.00s
  Step 5 - Process Frames:    21.28s (avg: 0.107s/frame)
  Step 6 - Convert Arrays:    0.00s
  Step 7 - Forward Kinematics: 0.46s
  Step 8 - Save Data:         0.00s
Status: SUCCESS
==================================================

=== SUCCESS LOG - 2025-10-14 17:34:09 ===
Input file: /data/retarget/locomotion/raw/AMASS_SMPLXG/KIT/3/kneel_down_with_left_hand07_stageii.npz
Output file: ../robot/ik_based/pkl/012063.pkl
Robot type: unitree_g1
Processing time: 41.62 seconds

STEP-BY-STEP TIMING:
  Step 1 - Load SMPLX:        3.87s
  Step 2 - Align FPS:         1.83s
  Step 3 - Init Retarget:     0.23s
  Step 4 - Init Visualization: 0.00s
  Step 5 - Process Frames:    34.68s (avg: 0.144s/frame)
  Step 6 - Convert Arrays:    0.00s
  Step 7 - Forward Kinematics: 0.56s
  Step 8 - Save Data:         0.01s
Status: SUCCESS
==================================================

=== SUCCESS LOG - 2025-10-14 17:34:13 ===
Input file: /data/retarget/locomotion/raw/AMASS_SMPLXG/KIT/3/kneel_down_with_left_hand08_stageii.npz
Output file: ../robot/ik_based/pkl/012064.pkl
Robot type: unitree_g1
Processing time: 43.23 seconds

STEP-BY-STEP TIMING:
  Step 1 - Load SMPLX:        4.04s
  Step 2 - Align FPS:         2.34s
  Step 3 - Init Retarget:     0.27s
  Step 4 - Init Visualization: 0.00s
  Step 5 - Process Frames:    36.18s (avg: 0.153s/frame)
  Step 6 - Convert Arrays:    0.00s
  Step 7 - Forward Kinematics: 0.22s
  Step 8 - Save Data:         0.00s
Status: SUCCESS
==================================================

=== SUCCESS LOG - 2025-10-14 17:34:14 ===
Input file: /data/retarget/locomotion/raw/AMASS_SMPLXG/KIT/3/kneel_down_with_left_hand09_stageii.npz
Output file: ../robot/ik_based/pkl/012065.pkl
Robot type: unitree_g1
Processing time: 40.65 seconds

STEP-BY-STEP TIMING:
  Step 1 - Load SMPLX:        4.41s
  Step 2 - Align FPS:         2.98s
  Step 3 - Init Retarget:     0.30s
  Step 4 - Init Visualization: 0.00s
  Step 5 - Process Frames:    32.91s (avg: 0.138s/frame)
  Step 6 - Convert Arrays:    0.00s
  Step 7 - Forward Kinematics: 0.02s
  Step 8 - Save Data:         0.00s
Status: SUCCESS
==================================================

=== SUCCESS LOG - 2025-10-14 17:34:42 ===
Input file: /data/retarget/locomotion/raw/AMASS_SMPLXG/KIT/3/kneel_down_with_right_hand02_stageii.npz
Output file: ../robot/ik_based/pkl/012068.pkl
Robot type: unitree_g1
Processing time: 27.31 seconds

STEP-BY-STEP TIMING:
  Step 1 - Load SMPLX:        3.53s
  Step 2 - Align FPS:         1.93s
  Step 3 - Init Retarget:     0.32s
  Step 4 - Init Visualization: 0.00s
  Step 5 - Process Frames:    20.65s (avg: 0.138s/frame)
  Step 6 - Convert Arrays:    0.00s
  Step 7 - Forward Kinematics: 0.62s
  Step 8 - Save Data:         0.00s
Status: SUCCESS
==================================================

=== SUCCESS LOG - 2025-10-14 17:34:42 ===
Input file: /data/retarget/locomotion/raw/AMASS_SMPLXG/KIT/3/kneel_down_with_left_hand10_stageii.npz
Output file: ../robot/ik_based/pkl/012066.pkl
Robot type: unitree_g1
Processing time: 32.65 seconds

STEP-BY-STEP TIMING:
  Step 1 - Load SMPLX:        4.65s
  Step 2 - Align FPS:         1.36s
  Step 3 - Init Retarget:     0.30s
  Step 4 - Init Visualization: 0.00s
  Step 5 - Process Frames:    25.87s (avg: 0.138s/frame)
  Step 6 - Convert Arrays:    0.00s
  Step 7 - Forward Kinematics: 0.27s
  Step 8 - Save Data:         0.00s
Status: SUCCESS
==================================================

=== SUCCESS LOG - 2025-10-14 17:34:46 ===
Input file: /data/retarget/locomotion/raw/AMASS_SMPLXG/KIT/3/kneel_down_with_right_hand01_stageii.npz
Output file: ../robot/ik_based/pkl/012067.pkl
Robot type: unitree_g1
Processing time: 32.35 seconds

STEP-BY-STEP TIMING:
  Step 1 - Load SMPLX:        3.36s
  Step 2 - Align FPS:         1.59s
  Step 3 - Init Retarget:     0.54s
  Step 4 - Init Visualization: 0.01s
  Step 5 - Process Frames:    26.67s (avg: 0.140s/frame)
  Step 6 - Convert Arrays:    0.00s
  Step 7 - Forward Kinematics: 0.02s
  Step 8 - Save Data:         0.00s
Status: SUCCESS
==================================================

=== SUCCESS LOG - 2025-10-14 17:35:10 ===
Input file: /data/retarget/locomotion/raw/AMASS_SMPLXG/KIT/3/kneel_down_with_right_hand05_stageii.npz
Output file: ../robot/ik_based/pkl/012071.pkl
Robot type: unitree_g1
Processing time: 22.99 seconds

STEP-BY-STEP TIMING:
  Step 1 - Load SMPLX:        5.18s
  Step 2 - Align FPS:         0.90s
  Step 3 - Init Retarget:     0.36s
  Step 4 - Init Visualization: 0.00s
  Step 5 - Process Frames:    15.84s (avg: 0.155s/frame)
  Step 6 - Convert Arrays:    0.00s
  Step 7 - Forward Kinematics: 0.38s
  Step 8 - Save Data:         0.01s
Status: SUCCESS
==================================================

=== SUCCESS LOG - 2025-10-14 17:35:11 ===
Input file: /data/retarget/locomotion/raw/AMASS_SMPLXG/KIT/3/kneel_down_with_right_hand03_stageii.npz
Output file: ../robot/ik_based/pkl/012069.pkl
Robot type: unitree_g1
Processing time: 28.47 seconds

STEP-BY-STEP TIMING:
  Step 1 - Load SMPLX:        2.36s
  Step 2 - Align FPS:         1.19s
  Step 3 - Init Retarget:     0.50s
  Step 4 - Init Visualization: 0.00s
  Step 5 - Process Frames:    24.20s (avg: 0.165s/frame)
  Step 6 - Convert Arrays:    0.00s
  Step 7 - Forward Kinematics: 0.17s
  Step 8 - Save Data:         0.00s
Status: SUCCESS
==================================================

=== SUCCESS LOG - 2025-10-14 17:35:11 ===
Input file: /data/retarget/locomotion/raw/AMASS_SMPLXG/KIT/3/kneel_down_with_right_hand04_stageii.npz
Output file: ../robot/ik_based/pkl/012070.pkl
Robot type: unitree_g1
Processing time: 28.26 seconds

STEP-BY-STEP TIMING:
  Step 1 - Load SMPLX:        3.36s
  Step 2 - Align FPS:         1.83s
  Step 3 - Init Retarget:     0.25s
  Step 4 - Init Visualization: 0.00s
  Step 5 - Process Frames:    22.63s (avg: 0.136s/frame)
  Step 6 - Convert Arrays:    0.00s
  Step 7 - Forward Kinematics: 0.03s
  Step 8 - Save Data:         0.00s
Status: SUCCESS
==================================================

=== SUCCESS LOG - 2025-10-14 17:35:45 ===
Input file: /data/retarget/locomotion/raw/AMASS_SMPLXG/KIT/3/kneel_down_with_right_hand06_stageii.npz
Output file: ../robot/ik_based/pkl/012072.pkl
Robot type: unitree_g1
Processing time: 34.78 seconds

STEP-BY-STEP TIMING:
  Step 1 - Load SMPLX:        2.32s
  Step 2 - Align FPS:         3.25s
  Step 3 - Init Retarget:     0.82s
  Step 4 - Init Visualization: 0.00s
  Step 5 - Process Frames:    26.88s (avg: 0.145s/frame)
  Step 6 - Convert Arrays:    0.00s
  Step 7 - Forward Kinematics: 0.93s
  Step 8 - Save Data:         0.01s
Status: SUCCESS
==================================================

=== SUCCESS LOG - 2025-10-14 17:35:45 ===
Input file: /data/retarget/locomotion/raw/AMASS_SMPLXG/KIT/3/kneel_down_with_right_hand08_stageii.npz
Output file: ../robot/ik_based/pkl/012074.pkl
Robot type: unitree_g1
Processing time: 34.21 seconds

STEP-BY-STEP TIMING:
  Step 1 - Load SMPLX:        1.72s
  Step 2 - Align FPS:         2.77s
  Step 3 - Init Retarget:     0.49s
  Step 4 - Init Visualization: 0.00s
  Step 5 - Process Frames:    28.88s (avg: 0.131s/frame)
  Step 6 - Convert Arrays:    0.00s
  Step 7 - Forward Kinematics: 0.17s
  Step 8 - Save Data:         0.00s
Status: SUCCESS
==================================================

=== SUCCESS LOG - 2025-10-14 17:35:46 ===
Input file: /data/retarget/locomotion/raw/AMASS_SMPLXG/KIT/3/kneel_down_with_right_hand07_stageii.npz
Output file: ../robot/ik_based/pkl/012073.pkl
Robot type: unitree_g1
Processing time: 35.22 seconds

STEP-BY-STEP TIMING:
  Step 1 - Load SMPLX:        1.38s
  Step 2 - Align FPS:         3.69s
  Step 3 - Init Retarget:     0.27s
  Step 4 - Init Visualization: 0.00s
  Step 5 - Process Frames:    29.83s (avg: 0.115s/frame)
  Step 6 - Convert Arrays:    0.00s
  Step 7 - Forward Kinematics: 0.02s
  Step 8 - Save Data:         0.00s
Status: SUCCESS
==================================================

=== SUCCESS LOG - 2025-10-14 17:36:05 ===
Input file: /data/retarget/locomotion/raw/AMASS_SMPLXG/KIT/3/kneel_down_with_stool_left_hand01_stageii.npz
Output file: ../robot/ik_based/pkl/012077.pkl
Robot type: unitree_g1
Processing time: 18.61 seconds

STEP-BY-STEP TIMING:
  Step 1 - Load SMPLX:        3.50s
  Step 2 - Align FPS:         1.74s
  Step 3 - Init Retarget:     0.57s
  Step 4 - Init Visualization: 0.00s
  Step 5 - Process Frames:    11.71s (avg: 0.127s/frame)
  Step 6 - Convert Arrays:    0.00s
  Step 7 - Forward Kinematics: 0.54s
  Step 8 - Save Data:         0.02s
Status: SUCCESS
==================================================

=== SUCCESS LOG - 2025-10-14 17:36:23 ===
Input file: /data/retarget/locomotion/raw/AMASS_SMPLXG/KIT/3/kneel_down_with_right_hand09_stageii.npz
Output file: ../robot/ik_based/pkl/012075.pkl
Robot type: unitree_g1
Processing time: 38.08 seconds

STEP-BY-STEP TIMING:
  Step 1 - Load SMPLX:        2.32s
  Step 2 - Align FPS:         3.75s
  Step 3 - Init Retarget:     1.07s
  Step 4 - Init Visualization: 0.00s
  Step 5 - Process Frames:    30.05s (avg: 0.116s/frame)
  Step 6 - Convert Arrays:    0.00s
  Step 7 - Forward Kinematics: 0.52s
  Step 8 - Save Data:         0.01s
Status: SUCCESS
==================================================

=== SUCCESS LOG - 2025-10-14 17:36:24 ===
Input file: /data/retarget/locomotion/raw/AMASS_SMPLXG/KIT/3/kneel_down_with_right_hand10_stageii.npz
Output file: ../robot/ik_based/pkl/012076.pkl
Robot type: unitree_g1
Processing time: 37.96 seconds

STEP-BY-STEP TIMING:
  Step 1 - Load SMPLX:        1.85s
  Step 2 - Align FPS:         4.52s
  Step 3 - Init Retarget:     0.36s
  Step 4 - Init Visualization: 0.00s
  Step 5 - Process Frames:    30.97s (avg: 0.125s/frame)
  Step 6 - Convert Arrays:    0.00s
  Step 7 - Forward Kinematics: 0.13s
  Step 8 - Save Data:         0.00s
Status: SUCCESS
==================================================

=== SUCCESS LOG - 2025-10-14 17:36:24 ===
Input file: /data/retarget/locomotion/raw/AMASS_SMPLXG/KIT/3/kneel_down_with_stool_left_hand02_stageii.npz
Output file: ../robot/ik_based/pkl/012078.pkl
Robot type: unitree_g1
Processing time: 18.99 seconds

STEP-BY-STEP TIMING:
  Step 1 - Load SMPLX:        4.41s
  Step 2 - Align FPS:         0.84s
  Step 3 - Init Retarget:     0.34s
  Step 4 - Init Visualization: 0.00s
  Step 5 - Process Frames:    13.34s (avg: 0.140s/frame)
  Step 6 - Convert Arrays:    0.00s
  Step 7 - Forward Kinematics: 0.03s
  Step 8 - Save Data:         0.00s
Status: SUCCESS
==================================================

=== SUCCESS LOG - 2025-10-14 17:36:49 ===
Input file: /data/retarget/locomotion/raw/AMASS_SMPLXG/KIT/3/kneel_down_with_stool_left_hand04_stageii.npz
Output file: ../robot/ik_based/pkl/012080.pkl
Robot type: unitree_g1
Processing time: 25.10 seconds

STEP-BY-STEP TIMING:
  Step 1 - Load SMPLX:        1.40s
  Step 2 - Align FPS:         2.39s
  Step 3 - Init Retarget:     0.32s
  Step 4 - Init Visualization: 0.00s
  Step 5 - Process Frames:    19.90s (avg: 0.142s/frame)
  Step 6 - Convert Arrays:    0.01s
  Step 7 - Forward Kinematics: 0.55s
  Step 8 - Save Data:         0.01s
Status: SUCCESS
==================================================

=== SUCCESS LOG - 2025-10-14 17:36:51 ===
Input file: /data/retarget/locomotion/raw/AMASS_SMPLXG/KIT/3/kneel_down_with_stool_left_hand03_stageii.npz
Output file: ../robot/ik_based/pkl/012079.pkl
Robot type: unitree_g1
Processing time: 27.33 seconds

STEP-BY-STEP TIMING:
  Step 1 - Load SMPLX:        1.83s
  Step 2 - Align FPS:         2.23s
  Step 3 - Init Retarget:     0.42s
  Step 4 - Init Visualization: 0.00s
  Step 5 - Process Frames:    22.35s (avg: 0.164s/frame)
  Step 6 - Convert Arrays:    0.00s
  Step 7 - Forward Kinematics: 0.25s
  Step 8 - Save Data:         0.01s
Status: SUCCESS
==================================================

=== SUCCESS LOG - 2025-10-14 17:36:51 ===
Input file: /data/retarget/locomotion/raw/AMASS_SMPLXG/KIT/3/kneel_down_with_stool_left_hand05_stageii.npz
Output file: ../robot/ik_based/pkl/012081.pkl
Robot type: unitree_g1
Processing time: 26.82 seconds

STEP-BY-STEP TIMING:
  Step 1 - Load SMPLX:        1.83s
  Step 2 - Align FPS:         4.00s
  Step 3 - Init Retarget:     0.27s
  Step 4 - Init Visualization: 0.00s
  Step 5 - Process Frames:    20.65s (avg: 0.102s/frame)
  Step 6 - Convert Arrays:    0.00s
  Step 7 - Forward Kinematics: 0.03s
  Step 8 - Save Data:         0.00s
Status: SUCCESS
==================================================

=== SUCCESS LOG - 2025-10-14 17:37:10 ===
Input file: /data/retarget/locomotion/raw/AMASS_SMPLXG/KIT/3/kneel_down_with_stool_left_hand06_stageii.npz
Output file: ../robot/ik_based/pkl/012082.pkl
Robot type: unitree_g1
Processing time: 21.02 seconds

STEP-BY-STEP TIMING:
  Step 1 - Load SMPLX:        2.52s
  Step 2 - Align FPS:         0.65s
  Step 3 - Init Retarget:     0.21s
  Step 4 - Init Visualization: 0.00s
  Step 5 - Process Frames:    16.85s (avg: 0.152s/frame)
  Step 6 - Convert Arrays:    0.00s
  Step 7 - Forward Kinematics: 0.46s
  Step 8 - Save Data:         0.01s
Status: SUCCESS
==================================================

=== SUCCESS LOG - 2025-10-14 17:37:11 ===
Input file: /data/retarget/locomotion/raw/AMASS_SMPLXG/KIT/3/kneel_down_with_stool_left_hand08_stageii.npz
Output file: ../robot/ik_based/pkl/012084.pkl
Robot type: unitree_g1
Processing time: 19.03 seconds

STEP-BY-STEP TIMING:
  Step 1 - Load SMPLX:        2.84s
  Step 2 - Align FPS:         0.96s
  Step 3 - Init Retarget:     0.27s
  Step 4 - Init Visualization: 0.00s
  Step 5 - Process Frames:    14.23s (avg: 0.115s/frame)
  Step 6 - Convert Arrays:    0.00s
  Step 7 - Forward Kinematics: 0.35s
  Step 8 - Save Data:         0.00s
Status: SUCCESS
==================================================

=== SUCCESS LOG - 2025-10-14 17:37:12 ===
Input file: /data/retarget/locomotion/raw/AMASS_SMPLXG/KIT/3/kneel_down_with_stool_left_hand07_stageii.npz
Output file: ../robot/ik_based/pkl/012083.pkl
Robot type: unitree_g1
Processing time: 20.98 seconds

STEP-BY-STEP TIMING:
  Step 1 - Load SMPLX:        2.02s
  Step 2 - Align FPS:         1.32s
  Step 3 - Init Retarget:     0.45s
  Step 4 - Init Visualization: 0.00s
  Step 5 - Process Frames:    17.13s (avg: 0.117s/frame)
  Step 6 - Convert Arrays:    0.00s
  Step 7 - Forward Kinematics: 0.03s
  Step 8 - Save Data:         0.00s
Status: SUCCESS
==================================================

=== SUCCESS LOG - 2025-10-14 17:37:35 ===
Input file: /data/retarget/locomotion/raw/AMASS_SMPLXG/KIT/3/kneel_down_with_stool_left_hand10_stageii.npz
Output file: ../robot/ik_based/pkl/012086.pkl
Robot type: unitree_g1
Processing time: 23.69 seconds

STEP-BY-STEP TIMING:
  Step 1 - Load SMPLX:        1.89s
  Step 2 - Align FPS:         2.03s
  Step 3 - Init Retarget:     0.24s
  Step 4 - Init Visualization: 0.00s
  Step 5 - Process Frames:    18.74s (avg: 0.120s/frame)
  Step 6 - Convert Arrays:    0.00s
  Step 7 - Forward Kinematics: 0.38s
  Step 8 - Save Data:         0.01s
Status: SUCCESS
==================================================

=== SUCCESS LOG - 2025-10-14 17:37:35 ===
Input file: /data/retarget/locomotion/raw/AMASS_SMPLXG/KIT/3/kneel_down_with_stool_left_hand09_stageii.npz
Output file: ../robot/ik_based/pkl/012085.pkl
Robot type: unitree_g1
Processing time: 24.17 seconds

STEP-BY-STEP TIMING:
  Step 1 - Load SMPLX:        1.87s
  Step 2 - Align FPS:         1.88s
  Step 3 - Init Retarget:     0.32s
  Step 4 - Init Visualization: 0.00s
  Step 5 - Process Frames:    19.57s (avg: 0.121s/frame)
  Step 6 - Convert Arrays:    0.00s
  Step 7 - Forward Kinematics: 0.28s
  Step 8 - Save Data:         0.01s
Status: SUCCESS
==================================================

=== SUCCESS LOG - 2025-10-14 17:37:36 ===
Input file: /data/retarget/locomotion/raw/AMASS_SMPLXG/KIT/3/kneel_down_with_stool_left_hand11_stageii.npz
Output file: ../robot/ik_based/pkl/012087.pkl
Robot type: unitree_g1
Processing time: 24.19 seconds

STEP-BY-STEP TIMING:
  Step 1 - Load SMPLX:        3.20s
  Step 2 - Align FPS:         2.35s
  Step 3 - Init Retarget:     0.28s
  Step 4 - Init Visualization: 0.00s
  Step 5 - Process Frames:    18.30s (avg: 0.114s/frame)
  Step 6 - Convert Arrays:    0.00s
  Step 7 - Forward Kinematics: 0.02s
  Step 8 - Save Data:         0.00s
Status: SUCCESS
==================================================

=== SUCCESS LOG - 2025-10-14 17:37:56 ===
Input file: /data/retarget/locomotion/raw/AMASS_SMPLXG/KIT/3/kneel_down_with_stool_right_hand01_stageii.npz
Output file: ../robot/ik_based/pkl/012088.pkl
Robot type: unitree_g1
Processing time: 20.80 seconds

STEP-BY-STEP TIMING:
  Step 1 - Load SMPLX:        2.16s
  Step 2 - Align FPS:         1.17s
  Step 3 - Init Retarget:     0.41s
  Step 4 - Init Visualization: 0.00s
  Step 5 - Process Frames:    16.08s (avg: 0.136s/frame)
  Step 6 - Convert Arrays:    0.00s
  Step 7 - Forward Kinematics: 0.48s
  Step 8 - Save Data:         0.01s
Status: SUCCESS
==================================================

=== SUCCESS LOG - 2025-10-14 17:37:56 ===
Input file: /data/retarget/locomotion/raw/AMASS_SMPLXG/KIT/3/kneel_down_with_stool_right_hand03_stageii.npz
Output file: ../robot/ik_based/pkl/012090.pkl
Robot type: unitree_g1
Processing time: 19.60 seconds

STEP-BY-STEP TIMING:
  Step 1 - Load SMPLX:        2.98s
  Step 2 - Align FPS:         1.65s
  Step 3 - Init Retarget:     0.41s
  Step 4 - Init Visualization: 0.00s
  Step 5 - Process Frames:    14.19s (avg: 0.104s/frame)
  Step 6 - Convert Arrays:    0.00s
  Step 7 - Forward Kinematics: 0.18s
  Step 8 - Save Data:         0.01s
Status: SUCCESS
==================================================

=== SUCCESS LOG - 2025-10-14 17:37:57 ===
Input file: /data/retarget/locomotion/raw/AMASS_SMPLXG/KIT/3/kneel_down_with_stool_right_hand02_stageii.npz
Output file: ../robot/ik_based/pkl/012089.pkl
Robot type: unitree_g1
Processing time: 21.41 seconds

STEP-BY-STEP TIMING:
  Step 1 - Load SMPLX:        2.15s
  Step 2 - Align FPS:         1.81s
  Step 3 - Init Retarget:     0.54s
  Step 4 - Init Visualization: 0.02s
  Step 5 - Process Frames:    16.81s (avg: 0.117s/frame)
  Step 6 - Convert Arrays:    0.00s
  Step 7 - Forward Kinematics: 0.02s
  Step 8 - Save Data:         0.00s
Status: SUCCESS
==================================================

=== SUCCESS LOG - 2025-10-14 17:38:14 ===
Input file: /data/retarget/locomotion/raw/AMASS_SMPLXG/KIT/3/kneel_down_with_stool_right_hand06_stageii.npz
Output file: ../robot/ik_based/pkl/012093.pkl
Robot type: unitree_g1
Processing time: 17.02 seconds

STEP-BY-STEP TIMING:
  Step 1 - Load SMPLX:        2.62s
  Step 2 - Align FPS:         0.83s
  Step 3 - Init Retarget:     0.29s
  Step 4 - Init Visualization: 0.00s
  Step 5 - Process Frames:    12.58s (avg: 0.122s/frame)
  Step 6 - Convert Arrays:    0.00s
  Step 7 - Forward Kinematics: 0.35s
  Step 8 - Save Data:         0.01s
Status: SUCCESS
==================================================

=== SUCCESS LOG - 2025-10-14 17:38:16 ===
Input file: /data/retarget/locomotion/raw/AMASS_SMPLXG/KIT/3/kneel_down_with_stool_right_hand05_stageii.npz
Output file: ../robot/ik_based/pkl/012092.pkl
Robot type: unitree_g1
Processing time: 19.76 seconds

STEP-BY-STEP TIMING:
  Step 1 - Load SMPLX:        1.39s
  Step 2 - Align FPS:         1.46s
  Step 3 - Init Retarget:     0.50s
  Step 4 - Init Visualization: 0.00s
  Step 5 - Process Frames:    16.06s (avg: 0.117s/frame)
  Step 6 - Convert Arrays:    0.00s
  Step 7 - Forward Kinematics: 0.23s
  Step 8 - Save Data:         0.00s
Status: SUCCESS
==================================================

=== SUCCESS LOG - 2025-10-14 17:38:16 ===
Input file: /data/retarget/locomotion/raw/AMASS_SMPLXG/KIT/3/kneel_down_with_stool_right_hand04_stageii.npz
Output file: ../robot/ik_based/pkl/012091.pkl
Robot type: unitree_g1
Processing time: 20.31 seconds

STEP-BY-STEP TIMING:
  Step 1 - Load SMPLX:        1.64s
  Step 2 - Align FPS:         1.94s
  Step 3 - Init Retarget:     0.49s
  Step 4 - Init Visualization: 0.01s
  Step 5 - Process Frames:    16.09s (avg: 0.099s/frame)
  Step 6 - Convert Arrays:    0.00s
  Step 7 - Forward Kinematics: 0.10s
  Step 8 - Save Data:         0.00s
Status: SUCCESS
==================================================

=== SUCCESS LOG - 2025-10-14 17:38:35 ===
Input file: /data/retarget/locomotion/raw/AMASS_SMPLXG/KIT/3/kneel_down_with_stool_right_hand07_stageii.npz
Output file: ../robot/ik_based/pkl/012094.pkl
Robot type: unitree_g1
Processing time: 20.68 seconds

STEP-BY-STEP TIMING:
  Step 1 - Load SMPLX:        2.94s
  Step 2 - Align FPS:         0.78s
  Step 3 - Init Retarget:     1.37s
  Step 4 - Init Visualization: 0.03s
  Step 5 - Process Frames:    14.82s (avg: 0.113s/frame)
  Step 6 - Convert Arrays:    0.00s
  Step 7 - Forward Kinematics: 0.47s
  Step 8 - Save Data:         0.00s
Status: SUCCESS
==================================================

=== SUCCESS LOG - 2025-10-14 17:38:35 ===
Input file: /data/retarget/locomotion/raw/AMASS_SMPLXG/KIT/3/kneel_down_with_stool_right_hand09_stageii.npz
Output file: ../robot/ik_based/pkl/012096.pkl
Robot type: unitree_g1
Processing time: 18.51 seconds

STEP-BY-STEP TIMING:
  Step 1 - Load SMPLX:        1.72s
  Step 2 - Align FPS:         1.55s
  Step 3 - Init Retarget:     0.26s
  Step 4 - Init Visualization: 0.00s
  Step 5 - Process Frames:    14.40s (avg: 0.135s/frame)
  Step 6 - Convert Arrays:    0.00s
  Step 7 - Forward Kinematics: 0.26s
  Step 8 - Save Data:         0.01s
Status: SUCCESS
==================================================

=== SUCCESS LOG - 2025-10-14 17:38:40 ===
Input file: /data/retarget/locomotion/raw/AMASS_SMPLXG/KIT/3/kneel_down_with_stool_right_hand08_stageii.npz
Output file: ../robot/ik_based/pkl/012095.pkl
Robot type: unitree_g1
Processing time: 23.74 seconds

STEP-BY-STEP TIMING:
  Step 1 - Load SMPLX:        1.80s
  Step 2 - Align FPS:         2.23s
  Step 3 - Init Retarget:     0.25s
  Step 4 - Init Visualization: 0.00s
  Step 5 - Process Frames:    18.60s (avg: 0.122s/frame)
  Step 6 - Convert Arrays:    0.00s
  Step 7 - Forward Kinematics: 0.48s
  Step 8 - Save Data:         0.01s
Status: SUCCESS
==================================================

=== SUCCESS LOG - 2025-10-14 17:38:51 ===
Input file: /data/retarget/locomotion/raw/AMASS_SMPLXG/KIT/3/kneel_down_with_stool_right_hand10_stageii.npz
Output file: ../robot/ik_based/pkl/012097.pkl
Robot type: unitree_g1
Processing time: 16.32 seconds

STEP-BY-STEP TIMING:
  Step 1 - Load SMPLX:        2.44s
  Step 2 - Align FPS:         1.53s
  Step 3 - Init Retarget:     0.22s
  Step 4 - Init Visualization: 0.00s
  Step 5 - Process Frames:    11.33s (avg: 0.103s/frame)
  Step 6 - Convert Arrays:    0.00s
  Step 7 - Forward Kinematics: 0.46s
  Step 8 - Save Data:         0.01s
Status: SUCCESS
==================================================

=== SUCCESS LOG - 2025-10-14 17:38:56 ===
Input file: /data/retarget/locomotion/raw/AMASS_SMPLXG/KIT/3/kneel_down_with_stool_right_hand11_stageii.npz
Output file: ../robot/ik_based/pkl/012098.pkl
Robot type: unitree_g1
Processing time: 21.03 seconds

STEP-BY-STEP TIMING:
  Step 1 - Load SMPLX:        2.61s
  Step 2 - Align FPS:         1.85s
  Step 3 - Init Retarget:     0.24s
  Step 4 - Init Visualization: 0.00s
  Step 5 - Process Frames:    15.95s (avg: 0.108s/frame)
  Step 6 - Convert Arrays:    0.00s
  Step 7 - Forward Kinematics: 0.19s
  Step 8 - Save Data:         0.01s
Status: SUCCESS
==================================================

=== SUCCESS LOG - 2025-10-14 17:38:59 ===
Input file: /data/retarget/locomotion/raw/AMASS_SMPLXG/KIT/3/kneel_up_from_crawl01_stageii.npz
Output file: ../robot/ik_based/pkl/012099.pkl
Robot type: unitree_g1
Processing time: 18.19 seconds

STEP-BY-STEP TIMING:
  Step 1 - Load SMPLX:        4.77s
  Step 2 - Align FPS:         2.05s
  Step 3 - Init Retarget:     0.30s
  Step 4 - Init Visualization: 0.00s
  Step 5 - Process Frames:    10.54s (avg: 0.075s/frame)
  Step 6 - Convert Arrays:    0.00s
  Step 7 - Forward Kinematics: 0.22s
  Step 8 - Save Data:         0.01s
Status: SUCCESS
==================================================

=== SUCCESS LOG - 2025-10-14 17:39:07 ===
Input file: /data/retarget/locomotion/raw/AMASS_SMPLXG/KIT/3/kneel_up_from_crawl02_stageii.npz
Output file: ../robot/ik_based/pkl/012100.pkl
Robot type: unitree_g1
Processing time: 15.78 seconds

STEP-BY-STEP TIMING:
  Step 1 - Load SMPLX:        4.90s
  Step 2 - Align FPS:         1.00s
  Step 3 - Init Retarget:     0.33s
  Step 4 - Init Visualization: 0.00s
  Step 5 - Process Frames:    8.71s (avg: 0.078s/frame)
  Step 6 - Convert Arrays:    0.00s
  Step 7 - Forward Kinematics: 0.43s
  Step 8 - Save Data:         0.01s
Status: SUCCESS
==================================================

=== SUCCESS LOG - 2025-10-14 17:39:21 ===
Input file: /data/retarget/locomotion/raw/AMASS_SMPLXG/KIT/3/kneel_up_from_crawl03_stageii.npz
Output file: ../robot/ik_based/pkl/012101.pkl
Robot type: unitree_g1
Processing time: 24.83 seconds

STEP-BY-STEP TIMING:
  Step 1 - Load SMPLX:        3.50s
  Step 2 - Align FPS:         2.08s
  Step 3 - Init Retarget:     0.46s
  Step 4 - Init Visualization: 0.00s
  Step 5 - Process Frames:    17.84s (avg: 0.118s/frame)
  Step 6 - Convert Arrays:    0.00s
  Step 7 - Forward Kinematics: 0.53s
  Step 8 - Save Data:         0.01s
Status: SUCCESS
==================================================

=== SUCCESS LOG - 2025-10-14 17:39:23 ===
Input file: /data/retarget/locomotion/raw/AMASS_SMPLXG/KIT/3/kneel_up_from_crawl04_stageii.npz
Output file: ../robot/ik_based/pkl/012102.pkl
Robot type: unitree_g1
Processing time: 24.32 seconds

STEP-BY-STEP TIMING:
  Step 1 - Load SMPLX:        3.75s
  Step 2 - Align FPS:         2.13s
  Step 3 - Init Retarget:     0.28s
  Step 4 - Init Visualization: 0.00s
  Step 5 - Process Frames:    17.77s (avg: 0.107s/frame)
  Step 6 - Convert Arrays:    0.00s
  Step 7 - Forward Kinematics: 0.21s
  Step 8 - Save Data:         0.01s
Status: SUCCESS
==================================================

=== SUCCESS LOG - 2025-10-14 17:39:27 ===
Input file: /data/retarget/locomotion/raw/AMASS_SMPLXG/KIT/3/kneel_up_from_crawl05_stageii.npz
Output file: ../robot/ik_based/pkl/012103.pkl
Robot type: unitree_g1
Processing time: 19.13 seconds

STEP-BY-STEP TIMING:
  Step 1 - Load SMPLX:        4.96s
  Step 2 - Align FPS:         1.83s
  Step 3 - Init Retarget:     0.27s
  Step 4 - Init Visualization: 0.00s
  Step 5 - Process Frames:    11.72s (avg: 0.081s/frame)
  Step 6 - Convert Arrays:    0.00s
  Step 7 - Forward Kinematics: 0.16s
  Step 8 - Save Data:         0.00s
Status: SUCCESS
==================================================

=== SUCCESS LOG - 2025-10-14 17:39:40 ===
Input file: /data/retarget/locomotion/raw/AMASS_SMPLXG/KIT/3/kneel_up_from_crawl06_stageii.npz
Output file: ../robot/ik_based/pkl/012104.pkl
Robot type: unitree_g1
Processing time: 18.31 seconds

STEP-BY-STEP TIMING:
  Step 1 - Load SMPLX:        2.63s
  Step 2 - Align FPS:         1.19s
  Step 3 - Init Retarget:     0.23s
  Step 4 - Init Visualization: 0.00s
  Step 5 - Process Frames:    13.29s (avg: 0.086s/frame)
  Step 6 - Convert Arrays:    0.00s
  Step 7 - Forward Kinematics: 0.48s
  Step 8 - Save Data:         0.01s
Status: SUCCESS
==================================================

=== SUCCESS LOG - 2025-10-14 17:39:43 ===
Input file: /data/retarget/locomotion/raw/AMASS_SMPLXG/KIT/3/kneel_up_from_crawl07_stageii.npz
Output file: ../robot/ik_based/pkl/012105.pkl
Robot type: unitree_g1
Processing time: 20.17 seconds

STEP-BY-STEP TIMING:
  Step 1 - Load SMPLX:        3.89s
  Step 2 - Align FPS:         1.27s
  Step 3 - Init Retarget:     0.21s
  Step 4 - Init Visualization: 0.00s
  Step 5 - Process Frames:    14.23s (avg: 0.093s/frame)
  Step 6 - Convert Arrays:    0.00s
  Step 7 - Forward Kinematics: 0.25s
  Step 8 - Save Data:         0.01s
Status: SUCCESS
==================================================

=== SUCCESS LOG - 2025-10-14 17:39:44 ===
Input file: /data/retarget/locomotion/raw/AMASS_SMPLXG/KIT/3/kneel_up_from_crawl08_stageii.npz
Output file: ../robot/ik_based/pkl/012106.pkl
Robot type: unitree_g1
Processing time: 16.87 seconds

STEP-BY-STEP TIMING:
  Step 1 - Load SMPLX:        4.85s
  Step 2 - Align FPS:         1.40s
  Step 3 - Init Retarget:     0.28s
  Step 4 - Init Visualization: 0.00s
  Step 5 - Process Frames:    10.28s (avg: 0.076s/frame)
  Step 6 - Convert Arrays:    0.00s
  Step 7 - Forward Kinematics: 0.03s
  Step 8 - Save Data:         0.00s
Status: SUCCESS
==================================================

=== SUCCESS LOG - 2025-10-14 17:39:59 ===
Input file: /data/retarget/locomotion/raw/AMASS_SMPLXG/KIT/3/kneel_up_from_crawl09_stageii.npz
Output file: ../robot/ik_based/pkl/012107.pkl
Robot type: unitree_g1
Processing time: 18.76 seconds

STEP-BY-STEP TIMING:
  Step 1 - Load SMPLX:        4.15s
  Step 2 - Align FPS:         0.77s
  Step 3 - Init Retarget:     0.19s
  Step 4 - Init Visualization: 0.00s
  Step 5 - Process Frames:    12.78s (avg: 0.104s/frame)
  Step 6 - Convert Arrays:    0.00s
  Step 7 - Forward Kinematics: 0.41s
  Step 8 - Save Data:         0.01s
Status: SUCCESS
==================================================

=== SUCCESS LOG - 2025-10-14 17:40:04 ===
Input file: /data/retarget/locomotion/raw/AMASS_SMPLXG/KIT/3/kneel_up_from_crawl10_stageii.npz
Output file: ../robot/ik_based/pkl/012108.pkl
Robot type: unitree_g1
Processing time: 20.15 seconds

STEP-BY-STEP TIMING:
  Step 1 - Load SMPLX:        2.71s
  Step 2 - Align FPS:         1.12s
  Step 3 - Init Retarget:     0.74s
  Step 4 - Init Visualization: 0.00s
  Step 5 - Process Frames:    14.67s (avg: 0.107s/frame)
  Step 6 - Convert Arrays:    0.00s
  Step 7 - Forward Kinematics: 0.17s
  Step 8 - Save Data:         0.03s
Status: SUCCESS
==================================================

=== SUCCESS LOG - 2025-10-14 17:40:19 ===
Input file: /data/retarget/locomotion/raw/AMASS_SMPLXG/KIT/3/kneel_up_hold01_stageii.npz
Output file: ../robot/ik_based/pkl/012109.pkl
Robot type: unitree_g1
Processing time: 35.34 seconds

STEP-BY-STEP TIMING:
  Step 1 - Load SMPLX:        3.55s
  Step 2 - Align FPS:         3.07s
  Step 3 - Init Retarget:     0.31s
  Step 4 - Init Visualization: 0.00s
  Step 5 - Process Frames:    27.56s (avg: 0.107s/frame)
  Step 6 - Convert Arrays:    0.00s
  Step 7 - Forward Kinematics: 0.41s
  Step 8 - Save Data:         0.01s
Status: SUCCESS
==================================================

=== SUCCESS LOG - 2025-10-14 17:40:33 ===
Input file: /data/retarget/locomotion/raw/AMASS_SMPLXG/KIT/3/kneel_up_hold02_stageii.npz
Output file: ../robot/ik_based/pkl/012110.pkl
Robot type: unitree_g1
Processing time: 34.24 seconds

STEP-BY-STEP TIMING:
  Step 1 - Load SMPLX:        4.17s
  Step 2 - Align FPS:         2.41s
  Step 3 - Init Retarget:     0.25s
  Step 4 - Init Visualization: 0.00s
  Step 5 - Process Frames:    26.76s (avg: 0.098s/frame)
  Step 6 - Convert Arrays:    0.00s
  Step 7 - Forward Kinematics: 0.35s
  Step 8 - Save Data:         0.01s
Status: SUCCESS
==================================================

=== SUCCESS LOG - 2025-10-14 17:40:41 ===
Input file: /data/retarget/locomotion/raw/AMASS_SMPLXG/KIT/3/kneel_up_hold03_stageii.npz
Output file: ../robot/ik_based/pkl/012111.pkl
Robot type: unitree_g1
Processing time: 36.17 seconds

STEP-BY-STEP TIMING:
  Step 1 - Load SMPLX:        4.54s
  Step 2 - Align FPS:         2.93s
  Step 3 - Init Retarget:     0.31s
  Step 4 - Init Visualization: 0.00s
  Step 5 - Process Frames:    27.32s (avg: 0.102s/frame)
  Step 6 - Convert Arrays:    0.00s
  Step 7 - Forward Kinematics: 0.52s
  Step 8 - Save Data:         0.13s
Status: SUCCESS
==================================================

=== SUCCESS LOG - 2025-10-14 17:40:57 ===
Input file: /data/retarget/locomotion/raw/AMASS_SMPLXG/KIT/3/kneel_up_hold04_stageii.npz
Output file: ../robot/ik_based/pkl/012112.pkl
Robot type: unitree_g1
Processing time: 36.87 seconds

STEP-BY-STEP TIMING:
  Step 1 - Load SMPLX:        4.93s
  Step 2 - Align FPS:         3.00s
  Step 3 - Init Retarget:     0.28s
  Step 4 - Init Visualization: 0.00s
  Step 5 - Process Frames:    27.60s (avg: 0.100s/frame)
  Step 6 - Convert Arrays:    0.00s
  Step 7 - Forward Kinematics: 0.54s
  Step 8 - Save Data:         0.01s
Status: SUCCESS
==================================================

=== SUCCESS LOG - 2025-10-14 17:41:04 ===
Input file: /data/retarget/locomotion/raw/AMASS_SMPLXG/KIT/3/kneel_up_with_left_hand01_stageii.npz
Output file: ../robot/ik_based/pkl/012114.pkl
Robot type: unitree_g1
Processing time: 23.39 seconds

STEP-BY-STEP TIMING:
  Step 1 - Load SMPLX:        4.54s
  Step 2 - Align FPS:         0.98s
  Step 3 - Init Retarget:     0.37s
  Step 4 - Init Visualization: 0.00s
  Step 5 - Process Frames:    16.60s (avg: 0.155s/frame)
  Step 6 - Convert Arrays:    0.00s
  Step 7 - Forward Kinematics: 0.49s
  Step 8 - Save Data:         0.01s
Status: SUCCESS
==================================================

=== SUCCESS LOG - 2025-10-14 17:41:11 ===
Input file: /data/retarget/locomotion/raw/AMASS_SMPLXG/KIT/3/kneel_up_hold05_stageii.npz
Output file: ../robot/ik_based/pkl/012113.pkl
Robot type: unitree_g1
Processing time: 37.00 seconds

STEP-BY-STEP TIMING:
  Step 1 - Load SMPLX:        4.59s
  Step 2 - Align FPS:         2.56s
  Step 3 - Init Retarget:     0.32s
  Step 4 - Init Visualization: 0.00s
  Step 5 - Process Frames:    29.03s (avg: 0.109s/frame)
  Step 6 - Convert Arrays:    0.00s
  Step 7 - Forward Kinematics: 0.39s
  Step 8 - Save Data:         0.00s
Status: SUCCESS
==================================================

=== SUCCESS LOG - 2025-10-14 17:41:14 ===
Input file: /data/retarget/locomotion/raw/AMASS_SMPLXG/KIT/3/kneel_up_with_left_hand02_stageii.npz
Output file: ../robot/ik_based/pkl/012115.pkl
Robot type: unitree_g1
Processing time: 16.94 seconds

STEP-BY-STEP TIMING:
  Step 1 - Load SMPLX:        4.34s
  Step 2 - Align FPS:         1.23s
  Step 3 - Init Retarget:     0.40s
  Step 4 - Init Visualization: 0.00s
  Step 5 - Process Frames:    10.54s (avg: 0.116s/frame)
  Step 6 - Convert Arrays:    0.00s
  Step 7 - Forward Kinematics: 0.25s
  Step 8 - Save Data:         0.00s
Status: SUCCESS
==================================================

=== SUCCESS LOG - 2025-10-14 17:41:23 ===
Input file: /data/retarget/locomotion/raw/AMASS_SMPLXG/KIT/3/kneel_up_with_left_hand03_stageii.npz
Output file: ../robot/ik_based/pkl/012116.pkl
Robot type: unitree_g1
Processing time: 18.09 seconds

STEP-BY-STEP TIMING:
  Step 1 - Load SMPLX:        4.50s
  Step 2 - Align FPS:         1.30s
  Step 3 - Init Retarget:     0.30s
  Step 4 - Init Visualization: 0.00s
  Step 5 - Process Frames:    11.02s (avg: 0.111s/frame)
  Step 6 - Convert Arrays:    0.00s
  Step 7 - Forward Kinematics: 0.49s
  Step 8 - Save Data:         0.01s
Status: SUCCESS
==================================================

=== SUCCESS LOG - 2025-10-14 17:41:29 ===
Input file: /data/retarget/locomotion/raw/AMASS_SMPLXG/KIT/3/kneel_up_with_left_hand04_stageii.npz
Output file: ../robot/ik_based/pkl/012117.pkl
Robot type: unitree_g1
Processing time: 17.80 seconds

STEP-BY-STEP TIMING:
  Step 1 - Load SMPLX:        3.80s
  Step 2 - Align FPS:         1.20s
  Step 3 - Init Retarget:     0.24s
  Step 4 - Init Visualization: 0.00s
  Step 5 - Process Frames:    11.22s (avg: 0.123s/frame)
  Step 6 - Convert Arrays:    0.00s
  Step 7 - Forward Kinematics: 0.64s
  Step 8 - Save Data:         0.02s
Status: SUCCESS
==================================================

=== SUCCESS LOG - 2025-10-14 17:41:29 ===
Input file: /data/retarget/locomotion/raw/AMASS_SMPLXG/KIT/3/kneel_up_with_left_hand05_stageii.npz
Output file: ../robot/ik_based/pkl/012118.pkl
Robot type: unitree_g1
Processing time: 15.15 seconds

STEP-BY-STEP TIMING:
  Step 1 - Load SMPLX:        3.01s
  Step 2 - Align FPS:         0.75s
  Step 3 - Init Retarget:     0.29s
  Step 4 - Init Visualization: 0.00s
  Step 5 - Process Frames:    10.61s (avg: 0.111s/frame)
  Step 6 - Convert Arrays:    0.00s
  Step 7 - Forward Kinematics: 0.18s
  Step 8 - Save Data:         0.00s
Status: SUCCESS
==================================================

=== SUCCESS LOG - 2025-10-14 17:41:43 ===
Input file: /data/retarget/locomotion/raw/AMASS_SMPLXG/KIT/3/kneel_up_with_left_hand06_stageii.npz
Output file: ../robot/ik_based/pkl/012119.pkl
Robot type: unitree_g1
Processing time: 20.11 seconds

STEP-BY-STEP TIMING:
  Step 1 - Load SMPLX:        4.47s
  Step 2 - Align FPS:         1.94s
  Step 3 - Init Retarget:     0.22s
  Step 4 - Init Visualization: 0.00s
  Step 5 - Process Frames:    12.60s (avg: 0.090s/frame)
  Step 6 - Convert Arrays:    0.00s
  Step 7 - Forward Kinematics: 0.47s
  Step 8 - Save Data:         0.01s
Status: SUCCESS
==================================================

=== SUCCESS LOG - 2025-10-14 17:41:46 ===
Input file: /data/retarget/locomotion/raw/AMASS_SMPLXG/KIT/3/kneel_up_with_left_hand07_stageii.npz
Output file: ../robot/ik_based/pkl/012120.pkl
Robot type: unitree_g1
Processing time: 17.16 seconds

STEP-BY-STEP TIMING:
  Step 1 - Load SMPLX:        2.58s
  Step 2 - Align FPS:         2.50s
  Step 3 - Init Retarget:     0.29s
  Step 4 - Init Visualization: 0.00s
  Step 5 - Process Frames:    11.26s (avg: 0.105s/frame)
  Step 6 - Convert Arrays:    0.00s
  Step 7 - Forward Kinematics: 0.30s
  Step 8 - Save Data:         0.01s
Status: SUCCESS
==================================================

=== SUCCESS LOG - 2025-10-14 17:41:47 ===
Input file: /data/retarget/locomotion/raw/AMASS_SMPLXG/KIT/3/kneel_up_with_left_hand08_stageii.npz
Output file: ../robot/ik_based/pkl/012121.pkl
Robot type: unitree_g1
Processing time: 17.38 seconds

STEP-BY-STEP TIMING:
  Step 1 - Load SMPLX:        2.66s
  Step 2 - Align FPS:         2.01s
  Step 3 - Init Retarget:     0.27s
  Step 4 - Init Visualization: 0.00s
  Step 5 - Process Frames:    12.37s (avg: 0.095s/frame)
  Step 6 - Convert Arrays:    0.00s
  Step 7 - Forward Kinematics: 0.03s
  Step 8 - Save Data:         0.00s
Status: SUCCESS
==================================================

=== SUCCESS LOG - 2025-10-14 17:42:03 ===
Input file: /data/retarget/locomotion/raw/AMASS_SMPLXG/KIT/3/kneel_up_with_left_hand09_stageii.npz
Output file: ../robot/ik_based/pkl/012122.pkl
Robot type: unitree_g1
Processing time: 19.86 seconds

STEP-BY-STEP TIMING:
  Step 1 - Load SMPLX:        4.21s
  Step 2 - Align FPS:         0.78s
  Step 3 - Init Retarget:     0.24s
  Step 4 - Init Visualization: 0.00s
  Step 5 - Process Frames:    13.91s (avg: 0.107s/frame)
  Step 6 - Convert Arrays:    0.00s
  Step 7 - Forward Kinematics: 0.40s
  Step 8 - Save Data:         0.01s
Status: SUCCESS
==================================================

=== SUCCESS LOG - 2025-10-14 17:42:07 ===
Input file: /data/retarget/locomotion/raw/AMASS_SMPLXG/KIT/3/kneel_up_with_left_hand10_stageii.npz
Output file: ../robot/ik_based/pkl/012123.pkl
Robot type: unitree_g1
Processing time: 20.11 seconds

STEP-BY-STEP TIMING:
  Step 1 - Load SMPLX:        2.39s
  Step 2 - Align FPS:         1.15s
  Step 3 - Init Retarget:     0.46s
  Step 4 - Init Visualization: 0.00s
  Step 5 - Process Frames:    15.74s (avg: 0.112s/frame)
  Step 6 - Convert Arrays:    0.00s
  Step 7 - Forward Kinematics: 0.18s
  Step 8 - Save Data:         0.00s
Status: SUCCESS
==================================================

=== SUCCESS LOG - 2025-10-14 17:42:09 ===
Input file: /data/retarget/locomotion/raw/AMASS_SMPLXG/KIT/3/kneel_up_with_right_hand01_stageii.npz
Output file: ../robot/ik_based/pkl/012124.pkl
Robot type: unitree_g1
Processing time: 21.45 seconds

STEP-BY-STEP TIMING:
  Step 1 - Load SMPLX:        3.32s
  Step 2 - Align FPS:         1.82s
  Step 3 - Init Retarget:     0.36s
  Step 4 - Init Visualization: 0.00s
  Step 5 - Process Frames:    15.90s (avg: 0.103s/frame)
  Step 6 - Convert Arrays:    0.00s
  Step 7 - Forward Kinematics: 0.02s
  Step 8 - Save Data:         0.00s
Status: SUCCESS
==================================================

=== SUCCESS LOG - 2025-10-14 17:42:21 ===
[...]
  Step 4 - Init Visualization: 0.00s
  Step 5 - Process Frames:    18.45s (avg: 0.172s/frame)
  Step 6 - Convert Arrays:    0.00s
  Step 7 - Forward Kinematics: 0.19s
  Step 8 - Save Data:         0.03s
Status: SUCCESS
==================================================

=== SUCCESS LOG - 2025-10-14 23:32:27 ===
Input file: /data/retarget/locomotion/raw/AMASS_SMPLXG/WEIZMANN/67/Fast_SShapeLR(4)_stageii.npz
Output file: ../robot/ik_based/pkl/015972.pkl
Robot type: unitree_g1
Processing time: 30.72 seconds

STEP-BY-STEP TIMING:
  Step 1 - Load SMPLX:        5.45s
  Step 2 - Align FPS:         3.66s
  Step 3 - Init Retarget:     0.45s
  Step 4 - Init Visualization: 0.00s
  Step 5 - Process Frames:    20.72s (avg: 0.199s/frame)
  Step 6 - Convert Arrays:    0.00s
  Step 7 - Forward Kinematics: 0.16s
  Step 8 - Save Data:         0.01s
Status: SUCCESS
==================================================

=== SUCCESS LOG - 2025-10-14 23:32:41 ===
Input file: /data/retarget/locomotion/raw/AMASS_SMPLXG/WEIZMANN/67/Fast_SShapeLR(5)_stageii.npz
Output file: ../robot/ik_based/pkl/015973.pkl
Robot type: unitree_g1
Processing time: 36.88 seconds

STEP-BY-STEP TIMING:
  Step 1 - Load SMPLX:        5.01s
  Step 2 - Align FPS:         4.13s
  Step 3 - Init Retarget:     0.59s
  Step 4 - Init Visualization: 0.00s
  Step 5 - Process Frames:    26.51s (avg: 0.241s/frame)
  Step 6 - Convert Arrays:    0.00s
  Step 7 - Forward Kinematics: 0.35s
  Step 8 - Save Data:         0.00s
Status: SUCCESS
==================================================

=== SUCCESS LOG - 2025-10-14 23:32:50 ===
Input file: /data/retarget/locomotion/raw/AMASS_SMPLXG/WEIZMANN/67/Fast_SShapeLR(6)_stageii.npz
Output file: ../robot/ik_based/pkl/015974.pkl
Robot type: unitree_g1
Processing time: 40.51 seconds

STEP-BY-STEP TIMING:
  Step 1 - Load SMPLX:        6.10s
  Step 2 - Align FPS:         3.95s
  Step 3 - Init Retarget:     0.84s
  Step 4 - Init Visualization: 0.00s
  Step 5 - Process Frames:    29.15s (avg: 0.249s/frame)
  Step 6 - Convert Arrays:    0.00s
  Step 7 - Forward Kinematics: 0.27s
  Step 8 - Save Data:         0.00s
Status: SUCCESS
==================================================

=== SUCCESS LOG - 2025-10-14 23:33:09 ===
Input file: /data/retarget/locomotion/raw/AMASS_SMPLXG/WEIZMANN/67/Fast_SShapeLR(7)_stageii.npz
Output file: ../robot/ik_based/pkl/015975.pkl
Robot type: unitree_g1
Processing time: 41.34 seconds

STEP-BY-STEP TIMING:
  Step 1 - Load SMPLX:        8.15s
  Step 2 - Align FPS:         5.24s
  Step 3 - Init Retarget:     1.17s
  Step 4 - Init Visualization: 0.00s
  Step 5 - Process Frames:    25.68s (avg: 0.225s/frame)
  Step 6 - Convert Arrays:    0.00s
  Step 7 - Forward Kinematics: 0.67s
  Step 8 - Save Data:         0.01s
Status: SUCCESS
==================================================

=== SUCCESS LOG - 2025-10-14 23:33:16 ===
Input file: /data/retarget/locomotion/raw/AMASS_SMPLXG/WEIZMANN/67/Fast_SShapeLR(8)_stageii.npz
Output file: ../robot/ik_based/pkl/015976.pkl
Robot type: unitree_g1
Processing time: 34.62 seconds

STEP-BY-STEP TIMING:
  Step 1 - Load SMPLX:        8.14s
  Step 2 - Align FPS:         5.61s
  Step 3 - Init Retarget:     0.66s
  Step 4 - Init Visualization: 0.00s
  Step 5 - Process Frames:    19.19s (avg: 0.174s/frame)
  Step 6 - Convert Arrays:    0.00s
  Step 7 - Forward Kinematics: 0.48s
  Step 8 - Save Data:         0.00s
Status: SUCCESS
==================================================

=== SUCCESS LOG - 2025-10-14 23:33:17 ===
Input file: /data/retarget/locomotion/raw/AMASS_SMPLXG/WEIZMANN/67/Fast_SShapeRL(1)_stageii.npz
Output file: ../robot/ik_based/pkl/015977.pkl
Robot type: unitree_g1
Processing time: 26.51 seconds

STEP-BY-STEP TIMING:
  Step 1 - Load SMPLX:        6.93s
  Step 2 - Align FPS:         3.79s
  Step 3 - Init Retarget:     0.62s
  Step 4 - Init Visualization: 0.00s
  Step 5 - Process Frames:    14.55s (avg: 0.150s/frame)
  Step 6 - Convert Arrays:    0.00s
  Step 7 - Forward Kinematics: 0.33s
  Step 8 - Save Data:         0.01s
Status: SUCCESS
==================================================

=== SUCCESS LOG - 2025-10-14 23:33:28 ===
Input file: /data/retarget/locomotion/raw/AMASS_SMPLXG/WEIZMANN/67/Fast_SShapeRL(10)_stageii.npz
Output file: ../robot/ik_based/pkl/015978.pkl
Robot type: unitree_g1
Processing time: 18.69 seconds

STEP-BY-STEP TIMING:
  Step 1 - Load SMPLX:        4.34s
  Step 2 - Align FPS:         1.35s
  Step 3 - Init Retarget:     0.29s
  Step 4 - Init Visualization: 0.00s
  Step 5 - Process Frames:    11.71s (avg: 0.126s/frame)
  Step 6 - Convert Arrays:    0.00s
  Step 7 - Forward Kinematics: 0.42s
  Step 8 - Save Data:         0.01s
Status: SUCCESS
==================================================

=== SUCCESS LOG - 2025-10-14 23:33:39 ===
Input file: /data/retarget/locomotion/raw/AMASS_SMPLXG/WEIZMANN/67/Fast_SShapeRL(12)_stageii.npz
Output file: ../robot/ik_based/pkl/015980.pkl
Robot type: unitree_g1
Processing time: 21.33 seconds

STEP-BY-STEP TIMING:
  Step 1 - Load SMPLX:        3.89s
  Step 2 - Align FPS:         1.57s
  Step 3 - Init Retarget:     0.27s
  Step 4 - Init Visualization: 0.00s
  Step 5 - Process Frames:    15.27s (avg: 0.168s/frame)
  Step 6 - Convert Arrays:    0.00s
  Step 7 - Forward Kinematics: 0.21s
  Step 8 - Save Data:         0.01s
Status: SUCCESS
==================================================

=== SUCCESS LOG - 2025-10-14 23:33:40 ===
Input file: /data/retarget/locomotion/raw/AMASS_SMPLXG/WEIZMANN/67/Fast_SShapeRL(11)_stageii.npz
Output file: ../robot/ik_based/pkl/015979.pkl
Robot type: unitree_g1
Processing time: 23.57 seconds

STEP-BY-STEP TIMING:
  Step 1 - Load SMPLX:        3.55s
  Step 2 - Align FPS:         2.00s
  Step 3 - Init Retarget:     0.50s
  Step 4 - Init Visualization: 0.00s
  Step 5 - Process Frames:    17.31s (avg: 0.204s/frame)
  Step 6 - Convert Arrays:    0.00s
  Step 7 - Forward Kinematics: 0.11s
  Step 8 - Save Data:         0.00s
Status: SUCCESS
==================================================

=== SUCCESS LOG - 2025-10-14 23:33:56 ===
Input file: /data/retarget/locomotion/raw/AMASS_SMPLXG/WEIZMANN/67/Fast_SShapeRL(13)_stageii.npz
Output file: ../robot/ik_based/pkl/015981.pkl
Robot type: unitree_g1
Processing time: 27.17 seconds

STEP-BY-STEP TIMING:
  Step 1 - Load SMPLX:        4.95s
  Step 2 - Align FPS:         2.87s
  Step 3 - Init Retarget:     0.55s
  Step 4 - Init Visualization: 0.00s
  Step 5 - Process Frames:    18.42s (avg: 0.196s/frame)
  Step 6 - Convert Arrays:    0.00s
  Step 7 - Forward Kinematics: 0.10s
  Step 8 - Save Data:         0.00s
Status: SUCCESS
==================================================

=== SUCCESS LOG - 2025-10-14 23:34:09 ===
Input file: /data/retarget/locomotion/raw/AMASS_SMPLXG/WEIZMANN/67/Fast_SShapeRL(14)_stageii.npz
Output file: ../robot/ik_based/pkl/015982.pkl
Robot type: unitree_g1
Processing time: 29.61 seconds

STEP-BY-STEP TIMING:
  Step 1 - Load SMPLX:        4.81s
  Step 2 - Align FPS:         3.74s
  Step 3 - Init Retarget:     0.74s
  Step 4 - Init Visualization: 0.00s
  Step 5 - Process Frames:    19.97s (avg: 0.208s/frame)
  Step 6 - Convert Arrays:    0.00s
  Step 7 - Forward Kinematics: 0.20s
  Step 8 - Save Data:         0.00s
Status: SUCCESS
==================================================

=== SUCCESS LOG - 2025-10-14 23:34:10 ===
Input file: /data/retarget/locomotion/raw/AMASS_SMPLXG/WEIZMANN/67/Fast_SShapeRL(15)_stageii.npz
Output file: ../robot/ik_based/pkl/015983.pkl
Robot type: unitree_g1
Processing time: 29.21 seconds

STEP-BY-STEP TIMING:
  Step 1 - Load SMPLX:        4.60s
  Step 2 - Align FPS:         3.53s
  Step 3 - Init Retarget:     0.91s
  Step 4 - Init Visualization: 0.00s
  Step 5 - Process Frames:    19.70s (avg: 0.210s/frame)
  Step 6 - Convert Arrays:    0.00s
  Step 7 - Forward Kinematics: 0.20s
  Step 8 - Save Data:         0.00s
Status: SUCCESS
==================================================

=== SUCCESS LOG - 2025-10-14 23:34:25 ===
Input file: /data/retarget/locomotion/raw/AMASS_SMPLXG/WEIZMANN/67/Fast_SShapeRL(16)_stageii.npz
Output file: ../robot/ik_based/pkl/015984.pkl
Robot type: unitree_g1
Processing time: 28.75 seconds

STEP-BY-STEP TIMING:
  Step 1 - Load SMPLX:        5.32s
  Step 2 - Align FPS:         2.00s
  Step 3 - Init Retarget:     0.58s
  Step 4 - Init Visualization: 0.00s
  Step 5 - Process Frames:    20.14s (avg: 0.234s/frame)
  Step 6 - Convert Arrays:    0.00s
  Step 7 - Forward Kinematics: 0.42s
  Step 8 - Save Data:         0.01s
Status: SUCCESS
==================================================

=== SUCCESS LOG - 2025-10-14 23:34:30 ===
Input file: /data/retarget/locomotion/raw/AMASS_SMPLXG/WEIZMANN/67/Fast_SShapeRL(18)_stageii.npz
Output file: ../robot/ik_based/pkl/015986.pkl
Robot type: unitree_g1
Processing time: 19.35 seconds

STEP-BY-STEP TIMING:
  Step 1 - Load SMPLX:        3.43s
  Step 2 - Align FPS:         2.84s
  Step 3 - Init Retarget:     0.39s
  Step 4 - Init Visualization: 0.00s
  Step 5 - Process Frames:    12.45s (avg: 0.130s/frame)
  Step 6 - Convert Arrays:    0.00s
  Step 7 - Forward Kinematics: 0.10s
  Step 8 - Save Data:         0.00s
Status: SUCCESS
==================================================

=== SUCCESS LOG - 2025-10-14 23:34:30 ===
Input file: /data/retarget/locomotion/raw/AMASS_SMPLXG/WEIZMANN/67/Fast_SShapeRL(17)_stageii.npz
Output file: ../robot/ik_based/pkl/015985.pkl
Robot type: unitree_g1
Processing time: 21.06 seconds

STEP-BY-STEP TIMING:
  Step 1 - Load SMPLX:        4.14s
  Step 2 - Align FPS:         2.98s
  Step 3 - Init Retarget:     0.28s
  Step 4 - Init Visualization: 0.00s
  Step 5 - Process Frames:    13.49s (avg: 0.141s/frame)
  Step 6 - Convert Arrays:    0.00s
  Step 7 - Forward Kinematics: 0.07s
  Step 8 - Save Data:         0.00s
Status: SUCCESS
==================================================

=== SUCCESS LOG - 2025-10-14 23:34:49 ===
Input file: /data/retarget/locomotion/raw/AMASS_SMPLXG/WEIZMANN/67/Fast_SShapeRL(19)_stageii.npz
Output file: ../robot/ik_based/pkl/015987.pkl
Robot type: unitree_g1
Processing time: 24.11 seconds

STEP-BY-STEP TIMING:
  Step 1 - Load SMPLX:        5.16s
  Step 2 - Align FPS:         3.20s
  Step 3 - Init Retarget:     0.50s
  Step 4 - Init Visualization: 0.00s
  Step 5 - Process Frames:    14.82s (avg: 0.156s/frame)
  Step 6 - Convert Arrays:    0.00s
  Step 7 - Forward Kinematics: 0.19s
  Step 8 - Save Data:         0.00s
Status: SUCCESS
==================================================

=== SUCCESS LOG - 2025-10-14 23:34:54 ===
Input file: /data/retarget/locomotion/raw/AMASS_SMPLXG/WEIZMANN/67/Fast_SShapeRL(20)_stageii.npz
Output file: ../robot/ik_based/pkl/015989.pkl
Robot type: unitree_g1
Processing time: 23.46 seconds

STEP-BY-STEP TIMING:
  Step 1 - Load SMPLX:        4.37s
  Step 2 - Align FPS:         2.90s
  Step 3 - Init Retarget:     0.41s
  Step 4 - Init Visualization: 0.00s
  Step 5 - Process Frames:    15.53s (avg: 0.159s/frame)
  Step 6 - Convert Arrays:    0.00s
  Step 7 - Forward Kinematics: 0.14s
  Step 8 - Save Data:         0.01s
Status: SUCCESS
==================================================

=== SUCCESS LOG - 2025-10-14 23:35:03 ===
Input file: /data/retarget/locomotion/raw/AMASS_SMPLXG/WEIZMANN/67/Fast_SShapeRL(2)_stageii.npz
Output file: ../robot/ik_based/pkl/015988.pkl
Robot type: unitree_g1
Processing time: 33.36 seconds

STEP-BY-STEP TIMING:
  Step 1 - Load SMPLX:        4.23s
  Step 2 - Align FPS:         3.28s
  Step 3 - Init Retarget:     0.64s
  Step 4 - Init Visualization: 0.00s
  Step 5 - Process Frames:    24.66s (avg: 0.242s/frame)
  Step 6 - Convert Arrays:    0.00s
  Step 7 - Forward Kinematics: 0.30s
  Step 8 - Save Data:         0.01s
Status: SUCCESS
==================================================

=== SUCCESS LOG - 2025-10-14 23:35:26 ===
Input file: /data/retarget/locomotion/raw/AMASS_SMPLXG/WEIZMANN/67/Fast_SShapeRL(21)_stageii.npz
Output file: ../robot/ik_based/pkl/015990.pkl
Robot type: unitree_g1
Processing time: 36.44 seconds

STEP-BY-STEP TIMING:
  Step 1 - Load SMPLX:        5.20s
  Step 2 - Align FPS:         3.11s
  Step 3 - Init Retarget:     1.02s
  Step 4 - Init Visualization: 0.00s
  Step 5 - Process Frames:    26.07s (avg: 0.286s/frame)
  Step 6 - Convert Arrays:    0.00s
  Step 7 - Forward Kinematics: 0.39s
  Step 8 - Save Data:         0.06s
Status: SUCCESS
==================================================

=== SUCCESS LOG - 2025-10-14 23:35:37 ===
Input file: /data/retarget/locomotion/raw/AMASS_SMPLXG/WEIZMANN/67/Fast_SShapeRL(3)_stageii.npz
Output file: ../robot/ik_based/pkl/015991.pkl
Robot type: unitree_g1
Processing time: 42.34 seconds

STEP-BY-STEP TIMING:
  Step 1 - Load SMPLX:        6.41s
  Step 2 - Align FPS:         5.46s
  Step 3 - Init Retarget:     0.48s
  Step 4 - Init Visualization: 0.03s
  Step 5 - Process Frames:    29.24s (avg: 0.318s/frame)
  Step 6 - Convert Arrays:    0.00s
  Step 7 - Forward Kinematics: 0.40s
  Step 8 - Save Data:         0.13s
Status: SUCCESS
==================================================

=== SUCCESS LOG - 2025-10-14 23:36:01 ===
Input file: /data/retarget/locomotion/raw/AMASS_SMPLXG/WEIZMANN/67/Fast_SShapeRL(5)_stageii.npz
Output file: ../robot/ik_based/pkl/015993.pkl
Robot type: unitree_g1
Processing time: 33.50 seconds

STEP-BY-STEP TIMING:
  Step 1 - Load SMPLX:        8.79s
  Step 2 - Align FPS:         5.17s
  Step 3 - Init Retarget:     0.90s
  Step 4 - Init Visualization: 0.00s
  Step 5 - Process Frames:    17.61s (avg: 0.182s/frame)
  Step 6 - Convert Arrays:    0.00s
  Step 7 - Forward Kinematics: 0.57s
  Step 8 - Save Data:         0.01s
Status: SUCCESS
==================================================

=== SUCCESS LOG - 2025-10-14 23:36:04 ===
Input file: /data/retarget/locomotion/raw/AMASS_SMPLXG/WEIZMANN/67/Fast_SShapeRL(6)_stageii.npz
Output file: ../robot/ik_based/pkl/015994.pkl
Robot type: unitree_g1
Processing time: 25.76 seconds

STEP-BY-STEP TIMING:
  Step 1 - Load SMPLX:        7.70s
  Step 2 - Align FPS:         3.74s
  Step 3 - Init Retarget:     0.35s
  Step 4 - Init Visualization: 0.00s
  Step 5 - Process Frames:    13.47s (avg: 0.142s/frame)
  Step 6 - Convert Arrays:    0.00s
  Step 7 - Forward Kinematics: 0.29s
  Step 8 - Save Data:         0.00s
Status: SUCCESS
==================================================

=== SUCCESS LOG - 2025-10-14 23:36:13 ===
Input file: /data/retarget/locomotion/raw/AMASS_SMPLXG/WEIZMANN/67/Fast_SShapeRL(4)_stageii.npz
Output file: ../robot/ik_based/pkl/015992.pkl
Robot type: unitree_g1
Processing time: 68.30 seconds

STEP-BY-STEP TIMING:
  Step 1 - Load SMPLX:        10.78s
  Step 2 - Align FPS:         9.47s
  Step 3 - Init Retarget:     1.14s
  Step 4 - Init Visualization: 0.00s
  Step 5 - Process Frames:    46.55s (avg: 0.308s/frame)
  Step 6 - Convert Arrays:    0.00s
  Step 7 - Forward Kinematics: 0.18s
  Step 8 - Save Data:         0.00s
Status: SUCCESS
==================================================

=== SUCCESS LOG - 2025-10-14 23:36:23 ===
Input file: /data/retarget/locomotion/raw/AMASS_SMPLXG/WEIZMANN/67/Fast_SShapeRL(7)_stageii.npz
Output file: ../robot/ik_based/pkl/015995.pkl
Robot type: unitree_g1
Processing time: 22.29 seconds

STEP-BY-STEP TIMING:
  Step 1 - Load SMPLX:        3.67s
  Step 2 - Align FPS:         1.39s
  Step 3 - Init Retarget:     0.27s
  Step 4 - Init Visualization: 0.00s
  Step 5 - Process Frames:    16.60s (avg: 0.182s/frame)
  Step 6 - Convert Arrays:    0.00s
  Step 7 - Forward Kinematics: 0.13s
  Step 8 - Save Data:         0.04s
Status: SUCCESS
==================================================

=== SUCCESS LOG - 2025-10-14 23:36:31 ===
Input file: /data/retarget/locomotion/raw/AMASS_SMPLXG/WEIZMANN/67/Fast_SShapeRL(8)_stageii.npz
Output file: ../robot/ik_based/pkl/015996.pkl
Robot type: unitree_g1
Processing time: 27.12 seconds

STEP-BY-STEP TIMING:
  Step 1 - Load SMPLX:        4.65s
  Step 2 - Align FPS:         3.48s
  Step 3 - Init Retarget:     0.56s
  Step 4 - Init Visualization: 0.00s
  Step 5 - Process Frames:    18.09s (avg: 0.190s/frame)
  Step 6 - Convert Arrays:    0.03s
  Step 7 - Forward Kinematics: 0.11s
  Step 8 - Save Data:         0.01s
Status: SUCCESS
==================================================

=== SUCCESS LOG - 2025-10-14 23:36:44 ===
Input file: /data/retarget/locomotion/raw/AMASS_SMPLXG/WEIZMANN/67/Fast_StraightLong(1)_stageii.npz
Output file: ../robot/ik_based/pkl/015998.pkl
Robot type: unitree_g1
Processing time: 20.28 seconds

STEP-BY-STEP TIMING:
  Step 1 - Load SMPLX:        5.14s
  Step 2 - Align FPS:         1.56s
  Step 3 - Init Retarget:     0.53s
  Step 4 - Init Visualization: 0.00s
  Step 5 - Process Frames:    12.55s (avg: 0.330s/frame)
  Step 6 - Convert Arrays:    0.01s
  Step 7 - Forward Kinematics: 0.21s
  Step 8 - Save Data:         0.01s
Status: SUCCESS
==================================================

=== SUCCESS LOG - 2025-10-14 23:36:45 ===
Input file: /data/retarget/locomotion/raw/AMASS_SMPLXG/WEIZMANN/67/Fast_SShapeRL(9)_stageii.npz
Output file: ../robot/ik_based/pkl/015997.pkl
Robot type: unitree_g1
Processing time: 31.95 seconds

STEP-BY-STEP TIMING:
  Step 1 - Load SMPLX:        4.60s
  Step 2 - Align FPS:         3.44s
  Step 3 - Init Retarget:     0.45s
  Step 4 - Init Visualization: 0.00s
  Step 5 - Process Frames:    22.92s (avg: 0.218s/frame)
  Step 6 - Convert Arrays:    0.02s
  Step 7 - Forward Kinematics: 0.19s
  Step 8 - Save Data:         0.02s
Status: SUCCESS
==================================================

=== ERROR LOG - 2025-10-14 23:36:50 ===
Input file: /data/retarget/locomotion/raw/AMASS_SMPLXG/WEIZMANN/67/male_stagei.npz
Output file: ../robot/ik_based/pkl/016375.pkl
Robot type: unitree_g1
Processing time: 5.57 seconds
Error message: 'pose_body is not a file in the archive'
Error type: KeyError
==================================================

=== ERROR LOG - 2025-10-14 23:36:51 ===
Input file: /data/retarget/locomotion/raw/AMASS_SMPLXG/WEIZMANN/68/male_stagei.npz
Output file: ../robot/ik_based/pkl/016807.pkl
Robot type: unitree_g1
Processing time: 5.14 seconds
Error message: 'pose_body is not a file in the archive'
Error type: KeyError
==================================================

=== SUCCESS LOG - 2025-10-14 23:36:52 ===
Input file: /data/retarget/locomotion/raw/AMASS_SMPLXG/WEIZMANN/67/Fast_StraightLong(10)_stageii.npz
Output file: ../robot/ik_based/pkl/015999.pkl
Robot type: unitree_g1
Processing time: 19.94 seconds

STEP-BY-STEP TIMING:
  Step 1 - Load SMPLX:        5.96s
  Step 2 - Align FPS:         2.08s
  Step 3 - Init Retarget:     0.55s
  Step 4 - Init Visualization: 0.00s
  Step 5 - Process Frames:    11.05s (avg: 0.276s/frame)
  Step 6 - Convert Arrays:    0.00s
  Step 7 - Forward Kinematics: 0.12s
  Step 8 - Save Data:         0.01s
Status: SUCCESS
==================================================

=== ERROR LOG - 2025-10-14 23:36:54 ===
Input file: /data/retarget/locomotion/raw/AMASS_SMPLXG/WEIZMANN/69/male_stagei.npz
Output file: ../robot/ik_based/pkl/017254.pkl
Robot type: unitree_g1
Processing time: 3.46 seconds
Error message: 'pose_body is not a file in the archive'
Error type: KeyError
==================================================

=== ERROR LOG - 2025-10-14 23:36:55 ===
Input file: /data/retarget/locomotion/raw/AMASS_SMPLXG/WEIZMANN/70/male_stagei.npz
Output file: ../robot/ik_based/pkl/017756.pkl
Robot type: unitree_g1
Processing time: 2.58 seconds
Error message: 'pose_body is not a file in the archive'
Error type: KeyError
==================================================

=== FINAL STATISTICS - 2025-10-14 23:36:55 ===
Total files processed: 5757
Successful: 5665
Failed: 92
, Total processing time: 66022.71 seconds
 Total execution time: 22220.02 seconds
Average processing time per file: 11.65 seconds
Average frames per file: 228.7 frames (1645 files with frames)
Total frames processed: 376,183 frames
==================================================
