
=== SUCCESS LOG - 2025-10-14 15:30:58 ===
Input file: /data/retarget/locomotion/raw/AMASS_SMPLXG/KIT/969/Trial_80_stageii.npz
Output file: ../robot/ik_based/pkl/015000.pkl
Robot type: unitree_g1
Processing time: 459.23 seconds

STEP-BY-STEP TIMING:
  Step 1 - Load SMPLX:        29.83s
  Step 2 - Align FPS:         62.91s
  Step 3 - Init Retarget:     2.46s
  Step 4 - Init Visualization: 0.02s
  Step 5 - Process Frames:    357.36s (avg: 0.546s/frame)
  Step 6 - Convert Arrays:    0.01s
  Step 7 - Forward Kinematics: 3.61s
  Step 8 - Save Data:         0.07s
Status: SUCCESS
==================================================

=== SUCCESS LOG - 2025-10-14 15:31:16 ===
Input file: /data/retarget/locomotion/raw/AMASS_SMPLXG/KIT/969/Trial_91_stageii.npz
Output file: ../robot/ik_based/pkl/015009.pkl
Robot type: unitree_g1
Processing time: 477.99 seconds

STEP-BY-STEP TIMING:
  Step 1 - Load SMPLX:        29.98s
  Step 2 - Align FPS:         72.30s
  Step 3 - Init Retarget:     0.84s
  Step 4 - Init Visualization: 0.00s
  Step 5 - Process Frames:    370.88s (avg: 0.496s/frame)
  Step 6 - Convert Arrays:    0.01s
  Step 7 - Forward Kinematics: 2.48s
  Step 8 - Save Data:         0.03s
Status: SUCCESS
==================================================

=== SUCCESS LOG - 2025-10-14 15:31:17 ===
Input file: /data/retarget/locomotion/raw/AMASS_SMPLXG/KIT/969/Trial_83_stageii.npz
Output file: ../robot/ik_based/pkl/015003.pkl
Robot type: unitree_g1
Processing time: 478.78 seconds

STEP-BY-STEP TIMING:
  Step 1 - Load SMPLX:        29.81s
  Step 2 - Align FPS:         67.37s
  Step 3 - Init Retarget:     5.13s
  Step 4 - Init Visualization: 0.00s
  Step 5 - Process Frames:    372.31s (avg: 0.525s/frame)
  Step 6 - Convert Arrays:    0.00s
  Step 7 - Forward Kinematics: 2.17s
  Step 8 - Save Data:         0.04s
Status: SUCCESS
==================================================

=== SUCCESS LOG - 2025-10-14 15:31:18 ===
Input file: /data/retarget/locomotion/raw/AMASS_SMPLXG/KIT/969/Trial_82_stageii.npz
Output file: ../robot/ik_based/pkl/015002.pkl
Robot type: unitree_g1
Processing time: 479.81 seconds

STEP-BY-STEP TIMING:
  Step 1 - Load SMPLX:        29.88s
  Step 2 - Align FPS:         70.53s
  Step 3 - Init Retarget:     2.63s
  Step 4 - Init Visualization: 0.01s
  Step 5 - Process Frames:    372.62s (avg: 0.526s/frame)
  Step 6 - Convert Arrays:    0.00s
  Step 7 - Forward Kinematics: 1.65s
  Step 8 - Save Data:         0.03s
Status: SUCCESS
==================================================

=== SUCCESS LOG - 2025-10-14 15:31:19 ===
Input file: /data/retarget/locomotion/raw/AMASS_SMPLXG/KIT/969/Trial_81_stageii.npz
Output file: ../robot/ik_based/pkl/015001.pkl
Robot type: unitree_g1
Processing time: 480.98 seconds

STEP-BY-STEP TIMING:
  Step 1 - Load SMPLX:        29.96s
  Step 2 - Align FPS:         66.32s
  Step 3 - Init Retarget:     2.60s
  Step 4 - Init Visualization: 0.10s
  Step 5 - Process Frames:    377.12s (avg: 0.525s/frame)
  Step 6 - Convert Arrays:    0.01s
  Step 7 - Forward Kinematics: 1.55s
  Step 8 - Save Data:         0.02s
Status: SUCCESS
==================================================

=== ERROR LOG - 2025-10-14 15:31:32 ===
Input file: /data/retarget/locomotion/raw/AMASS_SMPLXG/KIT/969/male_stagei.npz
Output file: ../robot/ik_based/pkl/015011.pkl
Robot type: unitree_g1
Processing time: 13.64 seconds
Error message: 'pose_body is not a file in the archive'
Error type: KeyError
==================================================

=== SUCCESS LOG - 2025-10-14 15:31:58 ===
Input file: /data/retarget/locomotion/raw/AMASS_SMPLXG/KIT/969/Trial_85_stageii.npz
Output file: ../robot/ik_based/pkl/015005.pkl
Robot type: unitree_g1
Processing time: 519.13 seconds

STEP-BY-STEP TIMING:
  Step 1 - Load SMPLX:        29.80s
  Step 2 - Align FPS:         68.33s
  Step 3 - Init Retarget:     4.52s
  Step 4 - Init Visualization: 0.01s
  Step 5 - Process Frames:    407.69s (avg: 0.568s/frame)
  Step 6 - Convert Arrays:    0.00s
  Step 7 - Forward Kinematics: 5.82s
  Step 8 - Save Data:         0.06s
Status: SUCCESS
==================================================

=== SUCCESS LOG - 2025-10-14 15:32:05 ===
Input file: /data/retarget/locomotion/raw/AMASS_SMPLXG/KIT/969/Trial_84_stageii.npz
Output file: ../robot/ik_based/pkl/015004.pkl
Robot type: unitree_g1
Processing time: 526.35 seconds

STEP-BY-STEP TIMING:
  Step 1 - Load SMPLX:        30.50s
  Step 2 - Align FPS:         77.33s
  Step 3 - Init Retarget:     1.22s
  Step 4 - Init Visualization: 0.01s
  Step 5 - Process Frames:    409.27s (avg: 0.540s/frame)
  Step 6 - Convert Arrays:    0.01s
  Step 7 - Forward Kinematics: 3.96s
  Step 8 - Save Data:         0.08s
Status: SUCCESS
==================================================

=== SUCCESS LOG - 2025-10-14 15:33:30 ===
Input file: /data/retarget/locomotion/raw/AMASS_SMPLXG/KIT/969/Trial_87_stageii.npz
Output file: ../robot/ik_based/pkl/015007.pkl
Robot type: unitree_g1
Processing time: 611.37 seconds

STEP-BY-STEP TIMING:
  Step 1 - Load SMPLX:        30.83s
  Step 2 - Align FPS:         87.20s
  Step 3 - Init Retarget:     0.68s
  Step 4 - Init Visualization: 0.00s
  Step 5 - Process Frames:    486.41s (avg: 0.574s/frame)
  Step 6 - Convert Arrays:    0.00s
  Step 7 - Forward Kinematics: 3.04s
  Step 8 - Save Data:         0.06s
Status: SUCCESS
==================================================

=== SUCCESS LOG - 2025-10-14 15:34:36 ===
Input file: /data/retarget/locomotion/raw/AMASS_SMPLXG/KIT/969/Trial_86_stageii.npz
Output file: ../robot/ik_based/pkl/015006.pkl
Robot type: unitree_g1
Processing time: 677.37 seconds

STEP-BY-STEP TIMING:
  Step 1 - Load SMPLX:        29.99s
  Step 2 - Align FPS:         77.41s
  Step 3 - Init Retarget:     1.33s
  Step 4 - Init Visualization: 0.00s
  Step 5 - Process Frames:    560.25s (avg: 0.780s/frame)
  Step 6 - Convert Arrays:    0.01s
  Step 7 - Forward Kinematics: 5.35s
  Step 8 - Save Data:         0.08s
Status: SUCCESS
==================================================

=== SUCCESS LOG - 2025-10-14 15:35:27 ===
Input file: /data/retarget/locomotion/raw/AMASS_SMPLXG/KIT/969/Trial_90_stageii.npz
Output file: ../robot/ik_based/pkl/015008.pkl
Robot type: unitree_g1
Processing time: 728.43 seconds

STEP-BY-STEP TIMING:
  Step 1 - Load SMPLX:        30.66s
  Step 2 - Align FPS:         84.65s
  Step 3 - Init Retarget:     3.03s
  Step 4 - Init Visualization: 0.00s
  Step 5 - Process Frames:    605.43s (avg: 0.789s/frame)
  Step 6 - Convert Arrays:    0.00s
  Step 7 - Forward Kinematics: 2.63s
  Step 8 - Save Data:         0.05s
Status: SUCCESS
==================================================

=== SUCCESS LOG - 2025-10-14 15:39:21 ===
Input file: /data/retarget/locomotion/raw/AMASS_SMPLXG/KIT/987/Experiment3b_02_stageii.npz
Output file: ../robot/ik_based/pkl/015018.pkl
Robot type: unitree_g1
Processing time: 349.88 seconds

STEP-BY-STEP TIMING:
  Step 1 - Load SMPLX:        23.85s
  Step 2 - Align FPS:         42.68s
  Step 3 - Init Retarget:     0.47s
  Step 4 - Init Visualization: 0.00s
  Step 5 - Process Frames:    278.22s (avg: 0.530s/frame)
  Step 6 - Convert Arrays:    0.01s
  Step 7 - Forward Kinematics: 2.97s
  Step 8 - Save Data:         0.03s
Status: SUCCESS
==================================================

=== SUCCESS LOG - 2025-10-14 15:43:27 ===
Input file: /data/retarget/locomotion/raw/AMASS_SMPLXG/KIT/987/Experiment3a_08_stageii.npz
Output file: ../robot/ik_based/pkl/015017.pkl
Robot type: unitree_g1
Processing time: 681.07 seconds

STEP-BY-STEP TIMING:
  Step 1 - Load SMPLX:        34.99s
  Step 2 - Align FPS:         63.64s
  Step 3 - Init Retarget:     0.44s
  Step 4 - Init Visualization: 0.00s
  Step 5 - Process Frames:    576.43s (avg: 0.625s/frame)
  Step 6 - Convert Arrays:    0.01s
  Step 7 - Forward Kinematics: 3.15s
  Step 8 - Save Data:         0.05s
Status: SUCCESS
==================================================

=== SUCCESS LOG - 2025-10-14 15:46:09 ===
Input file: /data/retarget/locomotion/raw/AMASS_SMPLXG/KIT/969/Trial_92_stageii.npz
Output file: ../robot/ik_based/pkl/015010.pkl
Robot type: unitree_g1
Processing time: 910.29 seconds

STEP-BY-STEP TIMING:
  Step 1 - Load SMPLX:        21.92s
  Step 2 - Align FPS:         59.67s
  Step 3 - Init Retarget:     1.10s
  Step 4 - Init Visualization: 0.00s
  Step 5 - Process Frames:    822.05s (avg: 0.766s/frame)
  Step 6 - Convert Arrays:    0.01s
  Step 7 - Forward Kinematics: 3.22s
  Step 8 - Save Data:         0.07s
Status: SUCCESS
==================================================

=== SUCCESS LOG - 2025-10-14 15:49:33 ===
Input file: /data/retarget/locomotion/raw/AMASS_SMPLXG/KIT/987/Experiment3a_06_stageii.npz
Output file: ../robot/ik_based/pkl/015015.pkl
Robot type: unitree_g1
Processing time: 1081.15 seconds

STEP-BY-STEP TIMING:
  Step 1 - Load SMPLX:        26.94s
  Step 2 - Align FPS:         98.07s
  Step 3 - Init Retarget:     0.72s
  Step 4 - Init Visualization: 0.00s
  Step 5 - Process Frames:    950.69s (avg: 0.540s/frame)
  Step 6 - Convert Arrays:    0.03s
  Step 7 - Forward Kinematics: 2.62s
  Step 8 - Save Data:         0.05s
Status: SUCCESS
==================================================

=== ERROR LOG - 2025-10-14 15:49:52 ===
Input file: /data/retarget/locomotion/raw/AMASS_SMPLXG/KIT/987/male_stagei.npz
Output file: ../robot/ik_based/pkl/015024.pkl
Robot type: unitree_g1
Processing time: 17.91 seconds
Error message: 'pose_body is not a file in the archive'
Error type: KeyError
==================================================

=== SUCCESS LOG - 2025-10-14 15:50:06 ===
Input file: /data/retarget/locomotion/raw/AMASS_SMPLXG/KIT/987/Experiment3b_05_stageii.npz
Output file: ../robot/ik_based/pkl/015019.pkl
Robot type: unitree_g1
Processing time: 928.01 seconds

STEP-BY-STEP TIMING:
  Step 1 - Load SMPLX:        21.46s
  Step 2 - Align FPS:         73.14s
  Step 3 - Init Retarget:     1.01s
  Step 4 - Init Visualization: 0.00s
  Step 5 - Process Frames:    827.36s (avg: 0.579s/frame)
  Step 6 - Convert Arrays:    0.01s
  Step 7 - Forward Kinematics: 2.72s
  Step 8 - Save Data:         0.07s
Status: SUCCESS
==================================================

=== ERROR LOG - 2025-10-14 15:50:11 ===
Input file: /data/retarget/locomotion/raw/AMASS_SMPLXG/MoSh/00008/female_stagei.npz
Output file: ../robot/ik_based/pkl/015025.pkl
Robot type: unitree_g1
Processing time: 17.92 seconds
Error message: 'pose_body is not a file in the archive'
Error type: KeyError
==================================================

=== SUCCESS LOG - 2025-10-14 15:53:00 ===
Input file: /data/retarget/locomotion/raw/AMASS_SMPLXG/KIT/987/Experiment3a_07_stageii.npz
Output file: ../robot/ik_based/pkl/015016.pkl
Robot type: unitree_g1
Processing time: 1260.98 seconds

STEP-BY-STEP TIMING:
  Step 1 - Load SMPLX:        39.57s
  Step 2 - Align FPS:         115.84s
  Step 3 - Init Retarget:     0.54s
  Step 4 - Init Visualization: 0.00s
  Step 5 - Process Frames:    1099.96s (avg: 0.583s/frame)
  Step 6 - Convert Arrays:    0.02s
  Step 7 - Forward Kinematics: 2.65s
  Step 8 - Save Data:         0.06s
Status: SUCCESS
==================================================

=== ERROR LOG - 2025-10-14 15:53:18 ===
Input file: /data/retarget/locomotion/raw/AMASS_SMPLXG/MoSh/00031/male_stagei.npz
Output file: ../robot/ik_based/pkl/015028.pkl
Robot type: unitree_g1
Processing time: 16.57 seconds
Error message: 'pose_body is not a file in the archive'
Error type: KeyError
==================================================

=== SUCCESS LOG - 2025-10-14 15:53:55 ===
Input file: /data/retarget/locomotion/raw/AMASS_SMPLXG/MoSh/00008/misc_stageii.npz
Output file: ../robot/ik_based/pkl/015026.pkl
Robot type: unitree_g1
Processing time: 228.09 seconds

STEP-BY-STEP TIMING:
  Step 1 - Load SMPLX:        16.54s
  Step 2 - Align FPS:         13.86s
  Step 3 - Init Retarget:     1.01s
  Step 4 - Init Visualization: 0.00s
  Step 5 - Process Frames:    191.56s (avg: 0.754s/frame)
  Step 6 - Convert Arrays:    0.00s
  Step 7 - Forward Kinematics: 2.92s
  Step 8 - Save Data:         0.02s
Status: SUCCESS
==================================================

=== SUCCESS LOG - 2025-10-14 15:55:08 ===
Input file: /data/retarget/locomotion/raw/AMASS_SMPLXG/MoSh/00031/misc_stageii.npz
Output file: ../robot/ik_based/pkl/015029.pkl
Robot type: unitree_g1
Processing time: 109.12 seconds

STEP-BY-STEP TIMING:
  Step 1 - Load SMPLX:        17.68s
  Step 2 - Align FPS:         7.33s
  Step 3 - Init Retarget:     0.69s
  Step 4 - Init Visualization: 0.00s
  Step 5 - Process Frames:    78.38s (avg: 0.608s/frame)
  Step 6 - Convert Arrays:    0.01s
  Step 7 - Forward Kinematics: 2.64s
  Step 8 - Save Data:         0.04s
Status: SUCCESS
==================================================

=== ERROR LOG - 2025-10-14 15:55:26 ===
Input file: /data/retarget/locomotion/raw/AMASS_SMPLXG/MoSh/00043/male_stagei.npz
Output file: ../robot/ik_based/pkl/015031.pkl
Robot type: unitree_g1
Processing time: 17.37 seconds
Error message: 'pose_body is not a file in the archive'
Error type: KeyError
==================================================

=== SUCCESS LOG - 2025-10-14 15:55:44 ===
Input file: /data/retarget/locomotion/raw/AMASS_SMPLXG/MoSh/00008/stretches_stageii.npz
Output file: ../robot/ik_based/pkl/015027.pkl
Robot type: unitree_g1
Processing time: 332.94 seconds

STEP-BY-STEP TIMING:
  Step 1 - Load SMPLX:        16.77s
  Step 2 - Align FPS:         30.98s
  Step 3 - Init Retarget:     0.71s
  Step 4 - Init Visualization: 0.01s
  Step 5 - Process Frames:    280.18s (avg: 0.475s/frame)
  Step 6 - Convert Arrays:    0.01s
  Step 7 - Forward Kinematics: 2.29s
  Step 8 - Save Data:         0.06s
Status: SUCCESS
==================================================

=== SUCCESS LOG - 2025-10-14 15:57:19 ===
Input file: /data/retarget/locomotion/raw/AMASS_SMPLXG/KIT/987/Experiment3b_07_stageii.npz
Output file: ../robot/ik_based/pkl/015021.pkl
Robot type: unitree_g1
Processing time: 1077.41 seconds

STEP-BY-STEP TIMING:
  Step 1 - Load SMPLX:        21.83s
  Step 2 - Align FPS:         78.65s
  Step 3 - Init Retarget:     0.70s
  Step 4 - Init Visualization: 0.00s
  Step 5 - Process Frames:    972.80s (avg: 0.461s/frame)
  Step 6 - Convert Arrays:    0.01s
  Step 7 - Forward Kinematics: 2.12s
  Step 8 - Save Data:         0.02s
Status: SUCCESS
==================================================

=== SUCCESS LOG - 2025-10-14 15:57:26 ===
Input file: /data/retarget/locomotion/raw/AMASS_SMPLXG/MoSh/00043/simple_crouch_stageii.npz
Output file: ../robot/ik_based/pkl/015032.pkl
Robot type: unitree_g1
Processing time: 119.57 seconds

STEP-BY-STEP TIMING:
  Step 1 - Load SMPLX:        19.40s
  Step 2 - Align FPS:         7.83s
  Step 3 - Init Retarget:     0.69s
  Step 4 - Init Visualization: 0.00s
  Step 5 - Process Frames:    88.09s (avg: 0.495s/frame)
  Step 6 - Convert Arrays:    0.00s
  Step 7 - Forward Kinematics: 1.82s
  Step 8 - Save Data:         0.02s
Status: SUCCESS
==================================================

=== ERROR LOG - 2025-10-14 15:57:37 ===
Input file: /data/retarget/locomotion/raw/AMASS_SMPLXG/MoSh/00046/female_stagei.npz
Output file: ../robot/ik_based/pkl/015034.pkl
Robot type: unitree_g1
Processing time: 16.05 seconds
Error message: 'pose_body is not a file in the archive'
Error type: KeyError
==================================================

=== SUCCESS LOG - 2025-10-14 15:58:14 ===
Input file: /data/retarget/locomotion/raw/AMASS_SMPLXG/KIT/987/Experiment3b_06_stageii.npz
Output file: ../robot/ik_based/pkl/015020.pkl
Robot type: unitree_g1
Processing time: 1365.42 seconds

STEP-BY-STEP TIMING:
  Step 1 - Load SMPLX:        24.38s
  Step 2 - Align FPS:         76.42s
  Step 3 - Init Retarget:     0.65s
  Step 4 - Init Visualization: 0.00s
  Step 5 - Process Frames:    1258.41s (avg: 0.642s/frame)
  Step 6 - Convert Arrays:    0.02s
  Step 7 - Forward Kinematics: 3.03s
  Step 8 - Save Data:         0.04s
Status: SUCCESS
==================================================

=== SUCCESS LOG - 2025-10-14 15:59:18 ===
Input file: /data/retarget/locomotion/raw/AMASS_SMPLXG/MoSh/00031/stretches_stageii.npz
Output file: ../robot/ik_based/pkl/015030.pkl
Robot type: unitree_g1
Processing time: 321.76 seconds

STEP-BY-STEP TIMING:
  Step 1 - Load SMPLX:        19.55s
  Step 2 - Align FPS:         26.92s
  Step 3 - Init Retarget:     0.65s
  Step 4 - Init Visualization: 0.00s
  Step 5 - Process Frames:    269.50s (avg: 0.426s/frame)
  Step 6 - Convert Arrays:    0.00s
  Step 7 - Forward Kinematics: 2.64s
  Step 8 - Save Data:         0.06s
Status: SUCCESS
==================================================

=== SUCCESS LOG - 2025-10-14 15:59:46 ===
Input file: /data/retarget/locomotion/raw/AMASS_SMPLXG/KIT/987/Experiment3a_02_stageii.npz
Output file: ../robot/ik_based/pkl/015012.pkl
Robot type: unitree_g1
Processing time: 1707.44 seconds

STEP-BY-STEP TIMING:
  Step 1 - Load SMPLX:        20.58s
  Step 2 - Align FPS:         149.67s
  Step 3 - Init Retarget:     0.63s
  Step 4 - Init Visualization: 0.01s
  Step 5 - Process Frames:    1530.30s (avg: 0.505s/frame)
  Step 6 - Convert Arrays:    0.02s
  Step 7 - Forward Kinematics: 3.28s
  Step 8 - Save Data:         0.10s
Status: SUCCESS
==================================================

=== SUCCESS LOG - 2025-10-14 15:59:57 ===
Input file: /data/retarget/locomotion/raw/AMASS_SMPLXG/MoSh/00043/stretches_stageii.npz
Output file: ../robot/ik_based/pkl/015033.pkl
Robot type: unitree_g1
Processing time: 252.18 seconds

STEP-BY-STEP TIMING:
  Step 1 - Load SMPLX:        18.61s
  Step 2 - Align FPS:         27.53s
  Step 3 - Init Retarget:     0.53s
  Step 4 - Init Visualization: 0.00s
  Step 5 - Process Frames:    201.27s (avg: 0.380s/frame)
  Step 6 - Convert Arrays:    0.00s
  Step 7 - Forward Kinematics: 2.03s
  Step 8 - Save Data:         0.04s
Status: SUCCESS
==================================================

=== ERROR LOG - 2025-10-14 16:00:04 ===
Input file: /data/retarget/locomotion/raw/AMASS_SMPLXG/MoSh/00058/female_stagei.npz
Output file: ../robot/ik_based/pkl/015039.pkl
Robot type: unitree_g1
Processing time: 16.29 seconds
Error message: 'pose_body is not a file in the archive'
Error type: KeyError
==================================================

=== ERROR LOG - 2025-10-14 16:00:22 ===
Input file: /data/retarget/locomotion/raw/AMASS_SMPLXG/MoSh/00059/female_stagei.npz
Output file: ../robot/ik_based/pkl/015041.pkl
Robot type: unitree_g1
Processing time: 17.81 seconds
Error message: 'pose_body is not a file in the archive'
Error type: KeyError
==================================================

=== SUCCESS LOG - 2025-10-14 16:01:14 ===
Input file: /data/retarget/locomotion/raw/AMASS_SMPLXG/KIT/987/Experiment3b_08_stageii.npz
Output file: ../robot/ik_based/pkl/015022.pkl
Robot type: unitree_g1
Processing time: 1065.69 seconds

STEP-BY-STEP TIMING:
  Step 1 - Load SMPLX:        20.62s
  Step 2 - Align FPS:         69.13s
  Step 3 - Init Retarget:     0.81s
  Step 4 - Init Visualization: 0.00s
  Step 5 - Process Frames:    969.98s (avg: 0.482s/frame)
  Step 6 - Convert Arrays:    0.01s
  Step 7 - Forward Kinematics: 3.00s
  Step 8 - Save Data:         0.07s
Status: SUCCESS
==================================================

=== SUCCESS LOG - 2025-10-14 16:01:32 ===
Input file: /data/retarget/locomotion/raw/AMASS_SMPLXG/MoSh/00046/misc_dancing_in_the_rain_kick_stageii.npz
Output file: ../robot/ik_based/pkl/015036.pkl
Robot type: unitree_g1
Processing time: 234.53 seconds

STEP-BY-STEP TIMING:
  Step 1 - Load SMPLX:        20.26s
  Step 2 - Align FPS:         12.10s
  Step 3 - Init Retarget:     0.57s
  Step 4 - Init Visualization: 0.00s
  Step 5 - Process Frames:    197.64s (avg: 0.612s/frame)
  Step 6 - Convert Arrays:    0.00s
  Step 7 - Forward Kinematics: 2.39s
  Step 8 - Save Data:         0.03s
Status: SUCCESS
==================================================

=== SUCCESS LOG - 2025-10-14 16:01:34 ===
Input file: /data/retarget/locomotion/raw/AMASS_SMPLXG/MoSh/00058/jiggles_2_stageii.npz
Output file: ../robot/ik_based/pkl/015040.pkl
Robot type: unitree_g1
Processing time: 95.92 seconds

STEP-BY-STEP TIMING:
  Step 1 - Load SMPLX:        17.37s
  Step 2 - Align FPS:         7.20s
  Step 3 - Init Retarget:     0.55s
  Step 4 - Init Visualization: 0.00s
  Step 5 - Process Frames:    66.59s (avg: 0.396s/frame)
  Step 6 - Convert Arrays:    0.00s
  Step 7 - Forward Kinematics: 2.52s
  Step 8 - Save Data:         0.03s
Status: SUCCESS
==================================================

=== ERROR LOG - 2025-10-14 16:01:49 ===
Input file: /data/retarget/locomotion/raw/AMASS_SMPLXG/MoSh/00093/female_stagei.npz
Output file: ../robot/ik_based/pkl/015044.pkl
Robot type: unitree_g1
Processing time: 16.48 seconds
Error message: 'pose_body is not a file in the archive'
Error type: KeyError
==================================================

=== SUCCESS LOG - 2025-10-14 16:02:36 ===
Input file: /data/retarget/locomotion/raw/AMASS_SMPLXG/KIT/987/Experiment3a_05_stageii.npz
Output file: ../robot/ik_based/pkl/015014.pkl
Robot type: unitree_g1
Processing time: 1875.31 seconds

STEP-BY-STEP TIMING:
  Step 1 - Load SMPLX:        20.76s
  Step 2 - Align FPS:         140.52s
  Step 3 - Init Retarget:     3.31s
  Step 4 - Init Visualization: 0.03s
  Step 5 - Process Frames:    1704.66s (avg: 0.574s/frame)
  Step 6 - Convert Arrays:    0.01s
  Step 7 - Forward Kinematics: 2.81s
  Step 8 - Save Data:         0.05s
Status: SUCCESS
==================================================

=== SUCCESS LOG - 2025-10-14 16:03:02 ===
Input file: /data/retarget/locomotion/raw/AMASS_SMPLXG/KIT/987/Experiment3a_03_stageii.npz
Output file: ../robot/ik_based/pkl/015013.pkl
Robot type: unitree_g1
Processing time: 1902.34 seconds

STEP-BY-STEP TIMING:
  Step 1 - Load SMPLX:        20.83s
  Step 2 - Align FPS:         160.59s
  Step 3 - Init Retarget:     0.70s
  Step 4 - Init Visualization: 0.00s
  Step 5 - Process Frames:    1715.28s (avg: 0.568s/frame)
  Step 6 - Convert Arrays:    0.03s
  Step 7 - Forward Kinematics: 2.44s
  Step 8 - Save Data:         0.06s
Status: SUCCESS
==================================================

=== ERROR LOG - 2025-10-14 16:03:20 ===
Input file: /data/retarget/locomotion/raw/AMASS_SMPLXG/MoSh/00096/male_stagei.npz
Output file: ../robot/ik_based/pkl/015048.pkl
Robot type: unitree_g1
Processing time: 16.90 seconds
Error message: 'pose_body is not a file in the archive'
Error type: KeyError
==================================================

=== SUCCESS LOG - 2025-10-14 16:03:21 ===
Input file: /data/retarget/locomotion/raw/AMASS_SMPLXG/MoSh/00059/misc_stageii.npz
Output file: ../robot/ik_based/pkl/015042.pkl
Robot type: unitree_g1
Processing time: 178.67 seconds

STEP-BY-STEP TIMING:
  Step 1 - Load SMPLX:        18.43s
  Step 2 - Align FPS:         9.26s
  Step 3 - Init Retarget:     0.65s
  Step 4 - Init Visualization: 0.01s
  Step 5 - Process Frames:    146.35s (avg: 0.534s/frame)
  Step 6 - Convert Arrays:    0.01s
  Step 7 - Forward Kinematics: 2.13s
  Step 8 - Save Data:         0.02s
Status: SUCCESS
==================================================

=== SUCCESS LOG - 2025-10-14 16:03:28 ===
Input file: /data/retarget/locomotion/raw/AMASS_SMPLXG/KIT/987/Experiment3b_09_stageii.npz
Output file: ../robot/ik_based/pkl/015023.pkl
Robot type: unitree_g1
Processing time: 1037.00 seconds

STEP-BY-STEP TIMING:
  Step 1 - Load SMPLX:        20.89s
  Step 2 - Align FPS:         68.49s
  Step 3 - Init Retarget:     0.62s
  Step 4 - Init Visualization: 0.00s
  Step 5 - Process Frames:    942.24s (avg: 0.466s/frame)
  Step 6 - Convert Arrays:    0.02s
  Step 7 - Forward Kinematics: 2.75s
  Step 8 - Save Data:         0.07s
Status: SUCCESS
==================================================

=== SUCCESS LOG - 2025-10-14 16:03:35 ===
Input file: /data/retarget/locomotion/raw/AMASS_SMPLXG/MoSh/00046/stretches_stageii.npz
Output file: ../robot/ik_based/pkl/015037.pkl
Robot type: unitree_g1
Processing time: 320.12 seconds

STEP-BY-STEP TIMING:
  Step 1 - Load SMPLX:        20.87s
  Step 2 - Align FPS:         26.95s
  Step 3 - Init Retarget:     0.49s
  Step 4 - Init Visualization: 0.00s
  Step 5 - Process Frames:    268.14s (avg: 0.386s/frame)
  Step 6 - Convert Arrays:    0.00s
  Step 7 - Forward Kinematics: 1.85s
  Step 8 - Save Data:         0.03s
Status: SUCCESS
==================================================

=== SUCCESS LOG - 2025-10-14 16:03:54 ===
Input file: /data/retarget/locomotion/raw/AMASS_SMPLXG/MoSh/00046/misc_2_stageii.npz
Output file: ../robot/ik_based/pkl/015035.pkl
Robot type: unitree_g1
Processing time: 387.37 seconds

STEP-BY-STEP TIMING:
  Step 1 - Load SMPLX:        17.22s
  Step 2 - Align FPS:         24.42s
  Step 3 - Init Retarget:     0.63s
  Step 4 - Init Visualization: 0.00s
  Step 5 - Process Frames:    340.15s (avg: 0.610s/frame)
  Step 6 - Convert Arrays:    0.00s
  Step 7 - Forward Kinematics: 2.92s
  Step 8 - Save Data:         0.05s
Status: SUCCESS
==================================================

=== ERROR LOG - 2025-10-14 16:03:54 ===
Input file: /data/retarget/locomotion/raw/AMASS_SMPLXG/MoSh/00111/male_stagei.npz
Output file: ../robot/ik_based/pkl/015052.pkl
Robot type: unitree_g1
Processing time: 18.17 seconds
Error message: 'pose_body is not a file in the archive'
Error type: KeyError
==================================================

=== SUCCESS LOG - 2025-10-14 16:05:11 ===
Input file: /data/retarget/locomotion/raw/AMASS_SMPLXG/MoSh/00093/irish_dance_stageii.npz
Output file: ../robot/ik_based/pkl/015045.pkl
Robot type: unitree_g1
Processing time: 216.23 seconds

STEP-BY-STEP TIMING:
  Step 1 - Load SMPLX:        16.03s
  Step 2 - Align FPS:         14.10s
  Step 3 - Init Retarget:     0.50s
  Step 4 - Init Visualization: 0.00s
  Step 5 - Process Frames:    180.83s (avg: 0.480s/frame)
  Step 6 - Convert Arrays:    0.00s
  Step 7 - Forward Kinematics: 2.80s
  Step 8 - Save Data:         0.04s
Status: SUCCESS
==================================================

=== SUCCESS LOG - 2025-10-14 16:05:39 ===
Input file: /data/retarget/locomotion/raw/AMASS_SMPLXG/MoSh/00096/misc_2_stageii.npz
Output file: ../robot/ik_based/pkl/015049.pkl
Robot type: unitree_g1
Processing time: 137.93 seconds

STEP-BY-STEP TIMING:
  Step 1 - Load SMPLX:        17.06s
  Step 2 - Align FPS:         8.81s
  Step 3 - Init Retarget:     0.64s
  Step 4 - Init Visualization: 0.00s
  Step 5 - Process Frames:    105.11s (avg: 0.442s/frame)
  Step 6 - Convert Arrays:    0.01s
  Step 7 - Forward Kinematics: 3.19s
  Step 8 - Save Data:         0.06s
Status: SUCCESS
==================================================

=== SUCCESS LOG - 2025-10-14 16:06:04 ===
Input file: /data/retarget/locomotion/raw/AMASS_SMPLXG/MoSh/00111/simple_crouch_stageii.npz
Output file: ../robot/ik_based/pkl/015054.pkl
Robot type: unitree_g1
Processing time: 128.99 seconds

STEP-BY-STEP TIMING:
  Step 1 - Load SMPLX:        18.94s
  Step 2 - Align FPS:         10.54s
  Step 3 - Init Retarget:     0.61s
  Step 4 - Init Visualization: 0.00s
  Step 5 - Process Frames:    93.11s (avg: 0.509s/frame)
  Step 6 - Convert Arrays:    0.00s
  Step 7 - Forward Kinematics: 2.40s
  Step 8 - Save Data:         0.42s
Status: SUCCESS
==================================================

=== SUCCESS LOG - 2025-10-14 16:06:08 ===
Input file: /data/retarget/locomotion/raw/AMASS_SMPLXG/MoSh/00059/stretches_stageii.npz
Output file: ../robot/ik_based/pkl/015043.pkl
Robot type: unitree_g1
Processing time: 292.51 seconds

STEP-BY-STEP TIMING:
  Step 1 - Load SMPLX:        19.35s
  Step 2 - Align FPS:         23.38s
  Step 3 - Init Retarget:     0.88s
  Step 4 - Init Visualization: 0.01s
  Step 5 - Process Frames:    240.85s (avg: 0.431s/frame)
  Step 6 - Convert Arrays:    0.01s
  Step 7 - Forward Kinematics: 3.16s
  Step 8 - Save Data:         0.07s
Status: SUCCESS
==================================================

=== ERROR LOG - 2025-10-14 16:06:25 ===
Input file: /data/retarget/locomotion/raw/AMASS_SMPLXG/MoSh/50002/male_stagei.npz
Output file: ../robot/ik_based/pkl/015058.pkl
Robot type: unitree_g1
Processing time: 16.15 seconds
Error message: 'pose_body is not a file in the archive'
Error type: KeyError
==================================================

=== SUCCESS LOG - 2025-10-14 16:06:50 ===
Input file: /data/retarget/locomotion/raw/AMASS_SMPLXG/MoSh/00096/simple_crouch_stageii.npz
Output file: ../robot/ik_based/pkl/015050.pkl
Robot type: unitree_g1
Processing time: 208.39 seconds

STEP-BY-STEP TIMING:
  Step 1 - Load SMPLX:        16.86s
  Step 2 - Align FPS:         12.21s
  Step 3 - Init Retarget:     0.53s
  Step 4 - Init Visualization: 0.00s
  Step 5 - Process Frames:    173.52s (avg: 0.474s/frame)
  Step 6 - Convert Arrays:    0.00s
  Step 7 - Forward Kinematics: 2.62s
  Step 8 - Save Data:         0.05s
Status: SUCCESS
==================================================

=== SUCCESS LOG - 2025-10-14 16:07:07 ===
Input file: /data/retarget/locomotion/raw/AMASS_SMPLXG/MoSh/00111/misc_stageii.npz
Output file: ../robot/ik_based/pkl/015053.pkl
Robot type: unitree_g1
Processing time: 192.23 seconds

STEP-BY-STEP TIMING:
  Step 1 - Load SMPLX:        18.24s
  Step 2 - Align FPS:         14.56s
  Step 3 - Init Retarget:     0.67s
  Step 4 - Init Visualization: 0.01s
  Step 5 - Process Frames:    154.87s (avg: 0.503s/frame)
  Step 6 - Convert Arrays:    0.00s
  Step 7 - Forward Kinematics: 1.74s
  Step 8 - Save Data:         0.03s
Status: SUCCESS
==================================================

=== SUCCESS LOG - 2025-10-14 16:07:11 ===
Input file: /data/retarget/locomotion/raw/AMASS_SMPLXG/MoSh/00093/stretches_stageii.npz
Output file: ../robot/ik_based/pkl/015047.pkl
Robot type: unitree_g1
Processing time: 273.44 seconds

STEP-BY-STEP TIMING:
  Step 1 - Load SMPLX:        19.70s
  Step 2 - Align FPS:         26.50s
  Step 3 - Init Retarget:     0.43s
  Step 4 - Init Visualization: 0.00s
  Step 5 - Process Frames:    222.22s (avg: 0.360s/frame)
  Step 6 - Convert Arrays:    0.01s
  Step 7 - Forward Kinematics: 2.44s
  Step 8 - Save Data:         0.05s
Status: SUCCESS
==================================================

=== SUCCESS LOG - 2025-10-14 16:07:14 ===
Input file: /data/retarget/locomotion/raw/AMASS_SMPLXG/MoSh/00093/misc_stageii.npz
Output file: ../robot/ik_based/pkl/015046.pkl
Robot type: unitree_g1
Processing time: 324.40 seconds

STEP-BY-STEP TIMING:
  Step 1 - Load SMPLX:        19.17s
  Step 2 - Align FPS:         25.84s
  Step 3 - Init Retarget:     0.50s
  Step 4 - Init Visualization: 0.00s
  Step 5 - Process Frames:    274.59s (avg: 0.517s/frame)
  Step 6 - Convert Arrays:    0.00s
  Step 7 - Forward Kinematics: 2.65s
  Step 8 - Save Data:         0.05s
Status: SUCCESS
==================================================

=== SUCCESS LOG - 2025-10-14 16:07:17 ===
Input file: /data/retarget/locomotion/raw/AMASS_SMPLXG/MoSh/00058/army_poses_stageii.npz
Output file: ../robot/ik_based/pkl/015038.pkl
Robot type: unitree_g1
Processing time: 478.49 seconds

STEP-BY-STEP TIMING:
  Step 1 - Load SMPLX:        20.53s
  Step 2 - Align FPS:         30.00s
  Step 3 - Init Retarget:     0.42s
  Step 4 - Init Visualization: 0.00s
  Step 5 - Process Frames:    423.85s (avg: 0.558s/frame)
  Step 6 - Convert Arrays:    0.00s
  Step 7 - Forward Kinematics: 2.12s
  Step 8 - Save Data:         0.02s
Status: SUCCESS
==================================================

=== ERROR LOG - 2025-10-14 16:07:27 ===
Input file: /data/retarget/locomotion/raw/AMASS_SMPLXG/MoSh/50004/female_stagei.npz
Output file: ../robot/ik_based/pkl/015062.pkl
Robot type: unitree_g1
Processing time: 14.56 seconds
Error message: 'pose_body is not a file in the archive'
Error type: KeyError
==================================================

=== SUCCESS LOG - 2025-10-14 16:07:44 ===
Input file: /data/retarget/locomotion/raw/AMASS_SMPLXG/MoSh/50002/misc_stageii.npz
Output file: ../robot/ik_based/pkl/015059.pkl
Robot type: unitree_g1
Processing time: 78.77 seconds

STEP-BY-STEP TIMING:
  Step 1 - Load SMPLX:        19.80s
  Step 2 - Align FPS:         3.44s
  Step 3 - Init Retarget:     0.62s
  Step 4 - Init Visualization: 0.00s
  Step 5 - Process Frames:    49.31s (avg: 0.421s/frame)
  Step 6 - Convert Arrays:    0.00s
  Step 7 - Forward Kinematics: 3.54s
  Step 8 - Save Data:         0.03s
Status: SUCCESS
==================================================

=== SUCCESS LOG - 2025-10-14 16:08:13 ===
Input file: /data/retarget/locomotion/raw/AMASS_SMPLXG/MoSh/50002/hips_stageii.npz
Output file: ../robot/ik_based/pkl/015056.pkl
Robot type: unitree_g1
Processing time: 153.92 seconds

STEP-BY-STEP TIMING:
  Step 1 - Load SMPLX:        20.21s
  Step 2 - Align FPS:         13.32s
  Step 3 - Init Retarget:     0.57s
  Step 4 - Init Visualization: 0.00s
  Step 5 - Process Frames:    112.90s (avg: 0.331s/frame)
  Step 6 - Convert Arrays:    0.00s
  Step 7 - Forward Kinematics: 3.65s
  Step 8 - Save Data:         0.04s
Status: SUCCESS
==================================================

=== SUCCESS LOG - 2025-10-14 16:09:16 ===
Input file: /data/retarget/locomotion/raw/AMASS_SMPLXG/MoSh/50004/light_hopping_stiff_stageii.npz
Output file: ../robot/ik_based/pkl/015064.pkl
Robot type: unitree_g1
Processing time: 117.97 seconds

STEP-BY-STEP TIMING:
  Step 1 - Load SMPLX:        19.02s
  Step 2 - Align FPS:         6.72s
  Step 3 - Init Retarget:     0.69s
  Step 4 - Init Visualization: 0.00s
  Step 5 - Process Frames:    86.72s (avg: 0.545s/frame)
  Step 6 - Convert Arrays:    0.02s
  Step 7 - Forward Kinematics: 2.87s
  Step 8 - Save Data:         0.08s
Status: SUCCESS
==================================================

=== SUCCESS LOG - 2025-10-14 16:09:30 ===
Input file: /data/retarget/locomotion/raw/AMASS_SMPLXG/MoSh/50004/hips_stageii.npz
Output file: ../robot/ik_based/pkl/015063.pkl
Robot type: unitree_g1
Processing time: 135.62 seconds

STEP-BY-STEP TIMING:
  Step 1 - Load SMPLX:        15.55s
  Step 2 - Align FPS:         10.33s
  Step 3 - Init Retarget:     0.79s
  Step 4 - Init Visualization: 0.00s
  Step 5 - Process Frames:    104.44s (avg: 0.370s/frame)
  Step 6 - Convert Arrays:    0.01s
  Step 7 - Forward Kinematics: 2.59s
  Step 8 - Save Data:         0.04s
Status: SUCCESS
==================================================

=== SUCCESS LOG - 2025-10-14 16:09:33 ===
Input file: /data/retarget/locomotion/raw/AMASS_SMPLXG/MoSh/50002/jumping_jacks_stageii.npz
Output file: ../robot/ik_based/pkl/015057.pkl
Robot type: unitree_g1
Processing time: 207.07 seconds

STEP-BY-STEP TIMING:
  Step 1 - Load SMPLX:        19.83s
  Step 2 - Align FPS:         10.34s
  Step 3 - Init Retarget:     0.62s
  Step 4 - Init Visualization: 0.01s
  Step 5 - Process Frames:    172.81s (avg: 0.582s/frame)
  Step 6 - Convert Arrays:    0.00s
  Step 7 - Forward Kinematics: 1.76s
  Step 8 - Save Data:         0.01s
Status: SUCCESS
==================================================

=== SUCCESS LOG - 2025-10-14 16:09:42 ===
Input file: /data/retarget/locomotion/raw/AMASS_SMPLXG/MoSh/00096/stretches_stageii.npz
Output file: ../robot/ik_based/pkl/015051.pkl
Robot type: unitree_g1
Processing time: 373.17 seconds

STEP-BY-STEP TIMING:
  Step 1 - Load SMPLX:        18.76s
  Step 2 - Align FPS:         33.90s
  Step 3 - Init Retarget:     0.72s
  Step 4 - Init Visualization: 0.00s
  Step 5 - Process Frames:    315.76s (avg: 0.410s/frame)
  Step 6 - Convert Arrays:    0.02s
  Step 7 - Forward Kinematics: 1.91s
  Step 8 - Save Data:         0.06s
Status: SUCCESS
==================================================

=== SUCCESS LOG - 2025-10-14 16:10:16 ===
Input file: /data/retarget/locomotion/raw/AMASS_SMPLXG/MoSh/50004/simple_crouch_stageii.npz
Output file: ../robot/ik_based/pkl/015067.pkl
Robot type: unitree_g1
Processing time: 121.21 seconds

STEP-BY-STEP TIMING:
  Step 1 - Load SMPLX:        20.09s
  Step 2 - Align FPS:         9.18s
  Step 3 - Init Retarget:     0.55s
  Step 4 - Init Visualization: 0.00s
  Step 5 - Process Frames:    85.40s (avg: 0.494s/frame)
  Step 6 - Convert Arrays:    0.00s
  Step 7 - Forward Kinematics: 3.52s
  Step 8 - Save Data:         0.06s
Status: SUCCESS
==================================================

=== SUCCESS LOG - 2025-10-14 16:10:28 ===
Input file: /data/retarget/locomotion/raw/AMASS_SMPLXG/MoSh/50002/simple_crouch2_stageii.npz
Output file: ../robot/ik_based/pkl/015060.pkl
Robot type: unitree_g1
Processing time: 217.09 seconds

STEP-BY-STEP TIMING:
  Step 1 - Load SMPLX:        17.24s
  Step 2 - Align FPS:         13.82s
  Step 3 - Init Retarget:     0.42s
  Step 4 - Init Visualization: 0.00s
  Step 5 - Process Frames:    181.09s (avg: 0.428s/frame)
  Step 6 - Convert Arrays:    0.00s
  Step 7 - Forward Kinematics: 2.23s
  Step 8 - Save Data:         0.06s
Status: SUCCESS
==================================================

=== ERROR LOG - 2025-10-14 16:10:33 ===
Input file: /data/retarget/locomotion/raw/AMASS_SMPLXG/MoSh/50007/male_stagei.npz
Output file: ../robot/ik_based/pkl/015072.pkl
Robot type: unitree_g1
Processing time: 17.01 seconds
Error message: 'pose_body is not a file in the archive'
Error type: KeyError
==================================================

=== SUCCESS LOG - 2025-10-14 16:10:45 ===
Input file: /data/retarget/locomotion/raw/AMASS_SMPLXG/MoSh/00111/stretches_stageii.npz
Output file: ../robot/ik_based/pkl/015055.pkl
Robot type: unitree_g1
Processing time: 333.47 seconds

STEP-BY-STEP TIMING:
  Step 1 - Load SMPLX:        19.74s
  Step 2 - Align FPS:         33.95s
  Step 3 - Init Retarget:     0.61s
  Step 4 - Init Visualization: 0.01s
  Step 5 - Process Frames:    275.80s (avg: 0.336s/frame)
  Step 6 - Convert Arrays:    0.01s
  Step 7 - Forward Kinematics: 1.64s
  Step 8 - Save Data:         0.04s
Status: SUCCESS
==================================================

=== SUCCESS LOG - 2025-10-14 16:11:34 ===
Input file: /data/retarget/locomotion/raw/AMASS_SMPLXG/MoSh/50007/light_hopping_stiff_stageii.npz
Output file: ../robot/ik_based/pkl/015071.pkl
Robot type: unitree_g1
Processing time: 111.03 seconds

STEP-BY-STEP TIMING:
  Step 1 - Load SMPLX:        21.39s
  Step 2 - Align FPS:         10.35s
  Step 3 - Init Retarget:     0.65s
  Step 4 - Init Visualization: 0.00s
  Step 5 - Process Frames:    73.64s (avg: 0.352s/frame)
  Step 6 - Convert Arrays:    0.00s
  Step 7 - Forward Kinematics: 2.68s
  Step 8 - Save Data:         0.04s
Status: SUCCESS
==================================================

=== SUCCESS LOG - 2025-10-14 16:11:42 ===
Input file: /data/retarget/locomotion/raw/AMASS_SMPLXG/MoSh/50004/misc_1_stageii.npz
Output file: ../robot/ik_based/pkl/015065.pkl
Robot type: unitree_g1
Processing time: 255.34 seconds

STEP-BY-STEP TIMING:
  Step 1 - Load SMPLX:        20.51s
  Step 2 - Align FPS:         14.74s
  Step 3 - Init Retarget:     0.65s
  Step 4 - Init Visualization: 0.00s
  Step 5 - Process Frames:    214.39s (avg: 0.672s/frame)
  Step 6 - Convert Arrays:    0.00s
  Step 7 - Forward Kinematics: 2.35s
  Step 8 - Save Data:         0.06s
Status: SUCCESS
==================================================

=== SUCCESS LOG - 2025-10-14 16:11:47 ===
Input file: /data/retarget/locomotion/raw/AMASS_SMPLXG/MoSh/50004/misc_stageii.npz
Output file: ../robot/ik_based/pkl/015066.pkl
Robot type: unitree_g1
Processing time: 242.39 seconds

STEP-BY-STEP TIMING:
  Step 1 - Load SMPLX:        21.98s
  Step 2 - Align FPS:         11.96s
  Step 3 - Init Retarget:     0.71s
  Step 4 - Init Visualization: 0.00s
  Step 5 - Process Frames:    203.36s (avg: 0.596s/frame)
  Step 6 - Convert Arrays:    0.00s
  Step 7 - Forward Kinematics: 2.05s
  Step 8 - Save Data:         0.06s
Status: SUCCESS
==================================================

=== SUCCESS LOG - 2025-10-14 16:11:51 ===
Input file: /data/retarget/locomotion/raw/AMASS_SMPLXG/MoSh/50007/light_hopping_loose_stageii.npz
Output file: ../robot/ik_based/pkl/015070.pkl
Robot type: unitree_g1
Processing time: 137.62 seconds

STEP-BY-STEP TIMING:
  Step 1 - Load SMPLX:        19.40s
  Step 2 - Align FPS:         9.94s
  Step 3 - Init Retarget:     0.58s
  Step 4 - Init Visualization: 0.00s
  Step 5 - Process Frames:    104.15s (avg: 0.390s/frame)
  Step 6 - Convert Arrays:    0.00s
  Step 7 - Forward Kinematics: 1.94s
  Step 8 - Save Data:         0.04s
Status: SUCCESS
==================================================

=== ERROR LOG - 2025-10-14 16:11:51 ===
Input file: /data/retarget/locomotion/raw/AMASS_SMPLXG/MoSh/50009/male_stagei.npz
Output file: ../robot/ik_based/pkl/015076.pkl
Robot type: unitree_g1
Processing time: 16.65 seconds
Error message: 'pose_body is not a file in the archive'
Error type: KeyError
==================================================

=== SUCCESS LOG - 2025-10-14 16:12:52 ===
Input file: /data/retarget/locomotion/raw/AMASS_SMPLXG/MoSh/50004/stretches_stageii.npz
Output file: ../robot/ik_based/pkl/015068.pkl
Robot type: unitree_g1
Processing time: 215.45 seconds

STEP-BY-STEP TIMING:
  Step 1 - Load SMPLX:        17.87s
  Step 2 - Align FPS:         14.68s
  Step 3 - Init Retarget:     0.45s
  Step 4 - Init Visualization: 0.00s
  Step 5 - Process Frames:    177.13s (avg: 0.369s/frame)
  Step 6 - Convert Arrays:    0.00s
  Step 7 - Forward Kinematics: 2.84s
  Step 8 - Save Data:         0.03s
Status: SUCCESS
==================================================

=== ERROR LOG - 2025-10-14 16:13:12 ===
Input file: /data/retarget/locomotion/raw/AMASS_SMPLXG/MoSh/50020/female_stagei.npz
Output file: ../robot/ik_based/pkl/015081.pkl
Robot type: unitree_g1
Processing time: 18.37 seconds
Error message: 'pose_body is not a file in the archive'
Error type: KeyError
==================================================

=== SUCCESS LOG - 2025-10-14 16:13:13 ===
Input file: /data/retarget/locomotion/raw/AMASS_SMPLXG/MoSh/50002/stretches_stageii.npz
Output file: ../robot/ik_based/pkl/015061.pkl
Robot type: unitree_g1
Processing time: 365.59 seconds

STEP-BY-STEP TIMING:
  Step 1 - Load SMPLX:        16.80s
  Step 2 - Align FPS:         27.75s
  Step 3 - Init Retarget:     0.65s
  Step 4 - Init Visualization: 0.02s
  Step 5 - Process Frames:    316.28s (avg: 0.400s/frame)
  Step 6 - Convert Arrays:    0.00s
  Step 7 - Forward Kinematics: 2.19s
  Step 8 - Save Data:         0.02s
Status: SUCCESS
==================================================

=== SUCCESS LOG - 2025-10-14 16:13:25 ===
Input file: /data/retarget/locomotion/raw/AMASS_SMPLXG/MoSh/50007/jumping_jacks_stageii.npz
Output file: ../robot/ik_based/pkl/015069.pkl
Robot type: unitree_g1
Processing time: 233.80 seconds

STEP-BY-STEP TIMING:
  Step 1 - Load SMPLX:        17.04s
  Step 2 - Align FPS:         11.89s
  Step 3 - Init Retarget:     0.61s
  Step 4 - Init Visualization: 0.00s
  Step 5 - Process Frames:    201.05s (avg: 0.604s/frame)
  Step 6 - Convert Arrays:    0.00s
  Step 7 - Forward Kinematics: 1.65s
  Step 8 - Save Data:         0.03s
Status: SUCCESS
==================================================

=== SUCCESS LOG - 2025-10-14 16:13:46 ===
Input file: /data/retarget/locomotion/raw/AMASS_SMPLXG/MoSh/50009/jumping_jacks_stageii.npz
Output file: ../robot/ik_based/pkl/015075.pkl
Robot type: unitree_g1
Processing time: 179.89 seconds

STEP-BY-STEP TIMING:
  Step 1 - Load SMPLX:        21.22s
  Step 2 - Align FPS:         10.69s
  Step 3 - Init Retarget:     0.76s
  Step 4 - Init Visualization: 0.00s
  Step 5 - Process Frames:    142.18s (avg: 0.621s/frame)
  Step 6 - Convert Arrays:    0.00s
  Step 7 - Forward Kinematics: 1.81s
  Step 8 - Save Data:         0.03s
Status: SUCCESS
==================================================

=== SUCCESS LOG - 2025-10-14 16:14:21 ===
Input file: /data/retarget/locomotion/raw/AMASS_SMPLXG/MoSh/50009/simple_crouch_stageii.npz
Output file: ../robot/ik_based/pkl/015078.pkl
Robot type: unitree_g1
Processing time: 153.57 seconds

STEP-BY-STEP TIMING:
  Step 1 - Load SMPLX:        14.10s
  Step 2 - Align FPS:         9.80s
  Step 3 - Init Retarget:     0.65s
  Step 4 - Init Visualization: 0.00s
  Step 5 - Process Frames:    122.81s (avg: 0.434s/frame)
  Step 6 - Convert Arrays:    0.02s
  Step 7 - Forward Kinematics: 3.49s
  Step 8 - Save Data:         0.03s
Status: SUCCESS
==================================================

=== SUCCESS LOG - 2025-10-14 16:15:11 ===
Input file: /data/retarget/locomotion/raw/AMASS_SMPLXG/MoSh/50020/ankles_stageii.npz
Output file: ../robot/ik_based/pkl/015080.pkl
Robot type: unitree_g1
Processing time: 199.01 seconds

STEP-BY-STEP TIMING:
  Step 1 - Load SMPLX:        17.88s
  Step 2 - Align FPS:         13.71s
  Step 3 - Init Retarget:     0.62s
  Step 4 - Init Visualization: 0.00s
  Step 5 - Process Frames:    161.58s (avg: 0.712s/frame)
  Step 6 - Convert Arrays:    0.00s
  Step 7 - Forward Kinematics: 2.90s
  Step 8 - Save Data:         0.03s
Status: SUCCESS
==================================================

=== SUCCESS LOG - 2025-10-14 16:15:18 ===
Input file: /data/retarget/locomotion/raw/AMASS_SMPLXG/MoSh/50007/misc_1_stageii.npz
Output file: ../robot/ik_based/pkl/015073.pkl
Robot type: unitree_g1
Processing time: 289.21 seconds

STEP-BY-STEP TIMING:
  Step 1 - Load SMPLX:        16.11s
  Step 2 - Align FPS:         26.31s
  Step 3 - Init Retarget:     0.58s
  Step 4 - Init Visualization: 0.00s
  Step 5 - Process Frames:    241.73s (avg: 0.480s/frame)
  Step 6 - Convert Arrays:    0.01s
  Step 7 - Forward Kinematics: 2.43s
  Step 8 - Save Data:         0.07s
Status: SUCCESS
==================================================

=== SUCCESS LOG - 2025-10-14 16:15:26 ===
Input file: /data/retarget/locomotion/raw/AMASS_SMPLXG/MoSh/50007/stretches_stageii.npz
Output file: ../robot/ik_based/pkl/015074.pkl
Robot type: unitree_g1
Processing time: 292.28 seconds

STEP-BY-STEP TIMING:
  Step 1 - Load SMPLX:        15.79s
  Step 2 - Align FPS:         35.91s
  Step 3 - Init Retarget:     0.68s
  Step 4 - Init Visualization: 0.00s
  Step 5 - Process Frames:    236.15s (avg: 0.368s/frame)
  Step 6 - Convert Arrays:    0.00s
  Step 7 - Forward Kinematics: 2.23s
  Step 8 - Save Data:         0.04s
Status: SUCCESS
==================================================

=== SUCCESS LOG - 2025-10-14 16:15:42 ===
Input file: /data/retarget/locomotion/raw/AMASS_SMPLXG/MoSh/50009/stretches_stageii.npz
Output file: ../robot/ik_based/pkl/015079.pkl
Robot type: unitree_g1
Processing time: 230.15 seconds

STEP-BY-STEP TIMING:
  Step 1 - Load SMPLX:        17.61s
  Step 2 - Align FPS:         17.96s
  Step 3 - Init Retarget:     0.73s
  Step 4 - Init Visualization: 0.00s
  Step 5 - Process Frames:    189.42s (avg: 0.451s/frame)
  Step 6 - Convert Arrays:    0.00s
  Step 7 - Forward Kinematics: 2.40s
  Step 8 - Save Data:         0.03s
Status: SUCCESS
==================================================

=== SUCCESS LOG - 2025-10-14 16:16:15 ===
Input file: /data/retarget/locomotion/raw/AMASS_SMPLXG/MoSh/50020/hips_stageii.npz
Output file: ../robot/ik_based/pkl/015082.pkl
Robot type: unitree_g1
Processing time: 183.32 seconds

STEP-BY-STEP TIMING:
  Step 1 - Load SMPLX:        16.39s
  Step 2 - Align FPS:         12.54s
  Step 3 - Init Retarget:     0.56s
  Step 4 - Init Visualization: 0.00s
  Step 5 - Process Frames:    149.39s (avg: 0.521s/frame)
  Step 6 - Convert Arrays:    0.00s
  Step 7 - Forward Kinematics: 2.74s
  Step 8 - Save Data:         0.05s
Status: SUCCESS
==================================================

=== SUCCESS LOG - 2025-10-14 16:16:27 ===
Input file: /data/retarget/locomotion/raw/AMASS_SMPLXG/MoSh/50009/misc_stageii.npz
Output file: ../robot/ik_based/pkl/015077.pkl
Robot type: unitree_g1
Processing time: 283.70 seconds

STEP-BY-STEP TIMING:
  Step 1 - Load SMPLX:        15.72s
  Step 2 - Align FPS:         23.36s
  Step 3 - Init Retarget:     0.49s
  Step 4 - Init Visualization: 0.01s
  Step 5 - Process Frames:    239.69s (avg: 0.477s/frame)
  Step 6 - Convert Arrays:    0.00s
  Step 7 - Forward Kinematics: 2.31s
  Step 8 - Save Data:         0.04s
Status: SUCCESS
==================================================

=== ERROR LOG - 2025-10-14 16:16:33 ===
Input file: /data/retarget/locomotion/raw/AMASS_SMPLXG/MoSh/50021/female_stagei.npz
Output file: ../robot/ik_based/pkl/015091.pkl
Robot type: unitree_g1
Processing time: 17.06 seconds
Error message: 'pose_body is not a file in the archive'
Error type: KeyError
==================================================

=== SUCCESS LOG - 2025-10-14 16:16:38 ===
Input file: /data/retarget/locomotion/raw/AMASS_SMPLXG/MoSh/50020/shake_shoulders_stageii.npz
Output file: ../robot/ik_based/pkl/015087.pkl
Robot type: unitree_g1
Processing time: 85.93 seconds

STEP-BY-STEP TIMING:
  Step 1 - Load SMPLX:        16.73s
  Step 2 - Align FPS:         2.46s
  Step 3 - Init Retarget:     0.48s
  Step 4 - Init Visualization: 0.00s
  Step 5 - Process Frames:    62.26s (avg: 0.692s/frame)
  Step 6 - Convert Arrays:    0.00s
  Step 7 - Forward Kinematics: 2.12s
  Step 8 - Save Data:         0.03s
Status: SUCCESS
==================================================

=== SUCCESS LOG - 2025-10-14 16:16:43 ===
Input file: /data/retarget/locomotion/raw/AMASS_SMPLXG/MoSh/50020/neck_stageii.npz
Output file: ../robot/ik_based/pkl/015083.pkl
Robot type: unitree_g1
Processing time: 208.39 seconds

STEP-BY-STEP TIMING:
  Step 1 - Load SMPLX:        16.26s
  Step 2 - Align FPS:         13.89s
  Step 3 - Init Retarget:     0.72s
  Step 4 - Init Visualization: 0.00s
  Step 5 - Process Frames:    174.30s (avg: 0.486s/frame)
  Step 6 - Convert Arrays:    0.00s
  Step 7 - Forward Kinematics: 1.51s
  Step 8 - Save Data:         0.04s
Status: SUCCESS
==================================================

=== SUCCESS LOG - 2025-10-14 16:16:54 ===
Input file: /data/retarget/locomotion/raw/AMASS_SMPLXG/MoSh/50020/shoulders_stageii.npz
Output file: ../robot/ik_based/pkl/015088.pkl
Robot type: unitree_g1
Processing time: 94.73 seconds

STEP-BY-STEP TIMING:
  Step 1 - Load SMPLX:        16.06s
  Step 2 - Align FPS:         5.49s
  Step 3 - Init Retarget:     0.49s
  Step 4 - Init Visualization: 0.00s
  Step 5 - Process Frames:    67.99s (avg: 0.540s/frame)
  Step 6 - Convert Arrays:    0.00s
  Step 7 - Forward Kinematics: 2.02s
  Step 8 - Save Data:         0.07s
Status: SUCCESS
==================================================

=== SUCCESS LOG - 2025-10-14 16:17:13 ===
Input file: /data/retarget/locomotion/raw/AMASS_SMPLXG/MoSh/50020/shake_hips_stageii.npz
Output file: ../robot/ik_based/pkl/015086.pkl
Robot type: unitree_g1
Processing time: 170.35 seconds

STEP-BY-STEP TIMING:
  Step 1 - Load SMPLX:        19.86s
  Step 2 - Align FPS:         8.11s
  Step 3 - Init Retarget:     0.61s
  Step 4 - Init Visualization: 0.00s
  Step 5 - Process Frames:    136.72s (avg: 0.800s/frame)
  Step 6 - Convert Arrays:    0.00s
  Step 7 - Forward Kinematics: 2.52s
  Step 8 - Save Data:         0.03s
Status: SUCCESS
==================================================

=== ERROR LOG - 2025-10-14 16:17:14 ===
Input file: /data/retarget/locomotion/raw/AMASS_SMPLXG/MoSh/50022/female_stagei.npz
Output file: ../robot/ik_based/pkl/015096.pkl
Robot type: unitree_g1
Processing time: 19.51 seconds
Error message: 'pose_body is not a file in the archive'
Error type: KeyError
==================================================

=== SUCCESS LOG - 2025-10-14 16:17:55 ===
Input file: /data/retarget/locomotion/raw/AMASS_SMPLXG/MoSh/50021/misc_9_stageii.npz
Output file: ../robot/ik_based/pkl/015094.pkl
Robot type: unitree_g1
Processing time: 76.83 seconds

STEP-BY-STEP TIMING:
  Step 1 - Load SMPLX:        14.01s
  Step 2 - Align FPS:         2.14s
  Step 3 - Init Retarget:     0.78s
  Step 4 - Init Visualization: 0.00s
  Step 5 - Process Frames:    54.42s (avg: 0.592s/frame)
  Step 6 - Convert Arrays:    0.00s
  Step 7 - Forward Kinematics: 2.50s
  Step 8 - Save Data:         0.03s
Status: SUCCESS
==================================================

=== SUCCESS LOG - 2025-10-14 16:17:59 ===
Input file: /data/retarget/locomotion/raw/AMASS_SMPLXG/MoSh/50020/simple_crouch_3_stageii.npz
Output file: ../robot/ik_based/pkl/015089.pkl
Robot type: unitree_g1
Processing time: 152.30 seconds

STEP-BY-STEP TIMING:
  Step 1 - Load SMPLX:        16.87s
  Step 2 - Align FPS:         10.79s
  Step 3 - Init Retarget:     0.67s
  Step 4 - Init Visualization: 0.00s
  Step 5 - Process Frames:    119.41s (avg: 0.603s/frame)
  Step 6 - Convert Arrays:    0.00s
  Step 7 - Forward Kinematics: 2.66s
  Step 8 - Save Data:         0.04s
Status: SUCCESS
==================================================

=== SUCCESS LOG - 2025-10-14 16:18:31 ===
Input file: /data/retarget/locomotion/raw/AMASS_SMPLXG/MoSh/50021/hips_stageii.npz
Output file: ../robot/ik_based/pkl/015092.pkl
Robot type: unitree_g1
Processing time: 123.46 seconds

STEP-BY-STEP TIMING:
  Step 1 - Load SMPLX:        15.76s
  Step 2 - Align FPS:         12.00s
  Step 3 - Init Retarget:     0.67s
  Step 4 - Init Visualization: 0.00s
  Step 5 - Process Frames:    89.68s (avg: 0.336s/frame)
  Step 6 - Convert Arrays:    0.01s
  Step 7 - Forward Kinematics: 2.63s
  Step 8 - Save Data:         0.04s
Status: SUCCESS
==================================================

=== SUCCESS LOG - 2025-10-14 16:18:34 ===
Input file: /data/retarget/locomotion/raw/AMASS_SMPLXG/MoSh/50021/squat_simple_stageii.npz
Output file: ../robot/ik_based/pkl/015095.pkl
Robot type: unitree_g1
Processing time: 111.12 seconds

STEP-BY-STEP TIMING:
  Step 1 - Load SMPLX:        17.56s
  Step 2 - Align FPS:         6.66s
  Step 3 - Init Retarget:     0.42s
  Step 4 - Init Visualization: 0.00s
  Step 5 - Process Frames:    82.30s (avg: 0.416s/frame)
  Step 6 - Convert Arrays:    0.00s
  Step 7 - Forward Kinematics: 2.59s
  Step 8 - Save Data:         0.03s
Status: SUCCESS
==================================================

=== SUCCESS LOG - 2025-10-14 16:18:40 ===
Input file: /data/retarget/locomotion/raw/AMASS_SMPLXG/MoSh/50022/misc_1_stageii.npz
Output file: ../robot/ik_based/pkl/015098.pkl
Robot type: unitree_g1
Processing time: 86.15 seconds

STEP-BY-STEP TIMING:
  Step 1 - Load SMPLX:        17.35s
  Step 2 - Align FPS:         8.27s
  Step 3 - Init Retarget:     0.81s
  Step 4 - Init Visualization: 0.00s
  Step 5 - Process Frames:    55.61s (avg: 0.441s/frame)
  Step 6 - Convert Arrays:    0.00s
  Step 7 - Forward Kinematics: 2.28s
  Step 8 - Save Data:         0.02s
Status: SUCCESS
==================================================

=== SUCCESS LOG - 2025-10-14 16:18:42 ===
Input file: /data/retarget/locomotion/raw/AMASS_SMPLXG/MoSh/50021/army_poses_stageii.npz
Output file: ../robot/ik_based/pkl/015090.pkl
Robot type: unitree_g1
Processing time: 179.97 seconds

STEP-BY-STEP TIMING:
  Step 1 - Load SMPLX:        21.69s
  Step 2 - Align FPS:         13.42s
  Step 3 - Init Retarget:     0.68s
  Step 4 - Init Visualization: 0.00s
  Step 5 - Process Frames:    140.54s (avg: 0.421s/frame)
  Step 6 - Convert Arrays:    0.00s
  Step 7 - Forward Kinematics: 2.05s
  Step 8 - Save Data:         0.03s
Status: SUCCESS
==================================================

=== ERROR LOG - 2025-10-14 16:18:49 ===
Input file: /data/retarget/locomotion/raw/AMASS_SMPLXG/MoSh/50025/female_stagei.npz
Output file: ../robot/ik_based/pkl/015102.pkl
Robot type: unitree_g1
Processing time: 13.76 seconds
Error message: 'pose_body is not a file in the archive'
Error type: KeyError
==================================================

=== SUCCESS LOG - 2025-10-14 16:18:51 ===
Input file: /data/retarget/locomotion/raw/AMASS_SMPLXG/MoSh/50021/misc_7_stageii.npz
Output file: ../robot/ik_based/pkl/015093.pkl
Robot type: unitree_g1
Processing time: 137.63 seconds

STEP-BY-STEP TIMING:
  Step 1 - Load SMPLX:        14.53s
  Step 2 - Align FPS:         9.62s
  Step 3 - Init Retarget:     0.59s
  Step 4 - Init Visualization: 0.01s
  Step 5 - Process Frames:    109.42s (avg: 0.474s/frame)
  Step 6 - Convert Arrays:    0.01s
  Step 7 - Forward Kinematics: 1.94s
  Step 8 - Save Data:         0.02s
Status: SUCCESS
==================================================

=== SUCCESS LOG - 2025-10-14 16:19:14 ===
Input file: /data/retarget/locomotion/raw/AMASS_SMPLXG/MoSh/50022/side_to_side_hop_stageii.npz
Output file: ../robot/ik_based/pkl/015099.pkl
Robot type: unitree_g1
Processing time: 78.78 seconds

STEP-BY-STEP TIMING:
  Step 1 - Load SMPLX:        18.56s
  Step 2 - Align FPS:         4.04s
  Step 3 - Init Retarget:     0.55s
  Step 4 - Init Visualization: 0.00s
  Step 5 - Process Frames:    52.41s (avg: 0.403s/frame)
  Step 6 - Convert Arrays:    0.00s
  Step 7 - Forward Kinematics: 1.91s
  Step 8 - Save Data:         0.02s
Status: SUCCESS
==================================================

=== SUCCESS LOG - 2025-10-14 16:19:15 ===
Input file: /data/retarget/locomotion/raw/AMASS_SMPLXG/MoSh/50022/hips_stageii.npz
Output file: ../robot/ik_based/pkl/015097.pkl
Robot type: unitree_g1
Processing time: 122.11 seconds

STEP-BY-STEP TIMING:
  Step 1 - Load SMPLX:        17.74s
  Step 2 - Align FPS:         15.60s
  Step 3 - Init Retarget:     0.56s
  Step 4 - Init Visualization: 0.00s
  Step 5 - Process Frames:    84.92s (avg: 0.304s/frame)
  Step 6 - Convert Arrays:    0.00s
  Step 7 - Forward Kinematics: 1.68s
  Step 8 - Save Data:         0.06s
Status: SUCCESS
==================================================

=== SUCCESS LOG - 2025-10-14 16:20:08 ===
Input file: /data/retarget/locomotion/raw/AMASS_SMPLXG/MoSh/50022/simple_crouch_stageii.npz
Output file: ../robot/ik_based/pkl/015100.pkl
Robot type: unitree_g1
Processing time: 128.43 seconds

STEP-BY-STEP TIMING:
  Step 1 - Load SMPLX:        19.30s
  Step 2 - Align FPS:         10.17s
  Step 3 - Init Retarget:     0.67s
  Step 4 - Init Visualization: 0.01s
  Step 5 - Process Frames:    92.79s (avg: 0.395s/frame)
  Step 6 - Convert Arrays:    0.00s
  Step 7 - Forward Kinematics: 2.65s
  Step 8 - Save Data:         0.06s
Status: SUCCESS
==================================================

=== SUCCESS LOG - 2025-10-14 16:20:24 ===
Input file: /data/retarget/locomotion/raw/AMASS_SMPLXG/MoSh/50025/light_hopping_stiff_stageii.npz
Output file: ../robot/ik_based/pkl/015105.pkl
Robot type: unitree_g1
Processing time: 94.70 seconds

STEP-BY-STEP TIMING:
  Step 1 - Load SMPLX:        20.16s
  Step 2 - Align FPS:         4.40s
  Step 3 - Init Retarget:     0.45s
  Step 4 - Init Visualization: 0.00s
  Step 5 - Process Frames:    65.89s (avg: 0.414s/frame)
  Step 6 - Convert Arrays:    0.00s
  Step 7 - Forward Kinematics: 1.96s
  Step 8 - Save Data:         0.06s
Status: SUCCESS
==================================================

=== SUCCESS LOG - 2025-10-14 16:20:49 ===
Input file: /data/retarget/locomotion/raw/AMASS_SMPLXG/MoSh/50025/light_hopping_loose_stageii.npz
Output file: ../robot/ik_based/pkl/015104.pkl
Robot type: unitree_g1
Processing time: 125.55 seconds

STEP-BY-STEP TIMING:
  Step 1 - Load SMPLX:        14.82s
  Step 2 - Align FPS:         10.29s
  Step 3 - Init Retarget:     0.59s
  Step 4 - Init Visualization: 0.01s
  Step 5 - Process Frames:    93.50s (avg: 0.437s/frame)
  Step 6 - Convert Arrays:    0.01s
  Step 7 - Forward Kinematics: 4.08s
  Step 8 - Save Data:         0.04s
Status: SUCCESS
==================================================

=== SUCCESS LOG - 2025-10-14 16:20:52 ===
Input file: /data/retarget/locomotion/raw/AMASS_SMPLXG/MoSh/50020/salsa_1_stageii.npz
Output file: ../robot/ik_based/pkl/015084.pkl
Robot type: unitree_g1
Processing time: 446.78 seconds

STEP-BY-STEP TIMING:
  Step 1 - Load SMPLX:        17.64s
  Step 2 - Align FPS:         17.70s
  Step 3 - Init Retarget:     0.55s
  Step 4 - Init Visualization: 0.00s
  Step 5 - Process Frames:    405.87s (avg: 0.818s/frame)
  Step 6 - Convert Arrays:    0.00s
  Step 7 - Forward Kinematics: 3.09s
  Step 8 - Save Data:         0.04s
Status: SUCCESS
==================================================

=== ERROR LOG - 2025-10-14 16:21:09 ===
Input file: /data/retarget/locomotion/raw/AMASS_SMPLXG/MoSh/50026/male_stagei.npz
Output file: ../robot/ik_based/pkl/015112.pkl
Robot type: unitree_g1
Processing time: 16.07 seconds
Error message: 'pose_body is not a file in the archive'
Error type: KeyError
==================================================

=== SUCCESS LOG - 2025-10-14 16:21:09 ===
Input file: /data/retarget/locomotion/raw/AMASS_SMPLXG/MoSh/50020/salsa_stageii.npz
Output file: ../robot/ik_based/pkl/015085.pkl
Robot type: unitree_g1
Processing time: 442.37 seconds

STEP-BY-STEP TIMING:
  Step 1 - Load SMPLX:        21.88s
  Step 2 - Align FPS:         16.26s
  Step 3 - Init Retarget:     0.64s
  Step 4 - Init Visualization: 0.00s
  Step 5 - Process Frames:    399.59s (avg: 0.832s/frame)
  Step 6 - Convert Arrays:    0.00s
  Step 7 - Forward Kinematics: 1.81s
  Step 8 - Save Data:         0.03s
Status: SUCCESS
==================================================

=== SUCCESS LOG - 2025-10-14 16:21:19 ===
Input file: /data/retarget/locomotion/raw/AMASS_SMPLXG/MoSh/50025/one_leg_loose_stageii.npz
Output file: ../robot/ik_based/pkl/015106.pkl
Robot type: unitree_g1
Processing time: 147.42 seconds

STEP-BY-STEP TIMING:
  Step 1 - Load SMPLX:        21.85s
  Step 2 - Align FPS:         11.31s
  Step 3 - Init Retarget:     0.53s
  Step 4 - Init Visualization: 0.00s
  Step 5 - Process Frames:    109.08s (avg: 0.409s/frame)
  Step 6 - Convert Arrays:    0.00s
  Step 7 - Forward Kinematics: 2.15s
  Step 8 - Save Data:         0.05s
Status: SUCCESS
==================================================

=== SUCCESS LOG - 2025-10-14 16:21:30 ===
Input file: /data/retarget/locomotion/raw/AMASS_SMPLXG/MoSh/50025/side_to_side_hopping_1_stageii.npz
Output file: ../robot/ik_based/pkl/015107.pkl
Robot type: unitree_g1
Processing time: 135.50 seconds

STEP-BY-STEP TIMING:
  Step 1 - Load SMPLX:        19.12s
  Step 2 - Align FPS:         10.99s
  Step 3 - Init Retarget:     0.49s
  Step 4 - Init Visualization: 0.00s
  Step 5 - Process Frames:    99.99s (avg: 0.440s/frame)
  Step 6 - Convert Arrays:    0.00s
  Step 7 - Forward Kinematics: 1.88s
  Step 8 - Save Data:         0.09s
Status: SUCCESS
==================================================

=== SUCCESS LOG - 2025-10-14 16:21:36 ===
Input file: /data/retarget/locomotion/raw/AMASS_SMPLXG/MoSh/50025/simple_crouch_stageii.npz
Output file: ../robot/ik_based/pkl/015108.pkl
Robot type: unitree_g1
Processing time: 139.55 seconds

STEP-BY-STEP TIMING:
  Step 1 - Load SMPLX:        21.41s
  Step 2 - Align FPS:         11.52s
  Step 3 - Init Retarget:     0.51s
  Step 4 - Init Visualization: 0.00s
  Step 5 - Process Frames:    101.28s (avg: 0.396s/frame)
  Step 6 - Convert Arrays:    0.00s
  Step 7 - Forward Kinematics: 2.53s
  Step 8 - Save Data:         0.01s
Status: SUCCESS
==================================================

=== SUCCESS LOG - 2025-10-14 16:22:30 ===
Input file: /data/retarget/locomotion/raw/AMASS_SMPLXG/MoSh/50026/light_hopping_loose_stageii.npz
Output file: ../robot/ik_based/pkl/015110.pkl
Robot type: unitree_g1
Processing time: 125.80 seconds

STEP-BY-STEP TIMING:
  Step 1 - Load SMPLX:        17.54s
  Step 2 - Align FPS:         8.50s
  Step 3 - Init Retarget:     0.52s
  Step 4 - Init Visualization: 0.00s
  Step 5 - Process Frames:    93.74s (avg: 0.380s/frame)
  Step 6 - Convert Arrays:    0.00s
  Step 7 - Forward Kinematics: 2.79s
  Step 8 - Save Data:         0.04s
Status: SUCCESS
==================================================

=== ERROR LOG - 2025-10-14 16:22:50 ===
Input file: /data/retarget/locomotion/raw/AMASS_SMPLXG/MoSh/50027/male_stagei.npz
Output file: ../robot/ik_based/pkl/015118.pkl
Robot type: unitree_g1
Processing time: 18.79 seconds
Error message: 'pose_body is not a file in the archive'
Error type: KeyError
==================================================

=== SUCCESS LOG - 2025-10-14 16:22:54 ===
Input file: /data/retarget/locomotion/raw/AMASS_SMPLXG/MoSh/50025/hips_stageii.npz
Output file: ../robot/ik_based/pkl/015103.pkl
Robot type: unitree_g1
Processing time: 253.63 seconds

STEP-BY-STEP TIMING:
  Step 1 - Load SMPLX:        15.25s
  Step 2 - Align FPS:         26.14s
  Step 3 - Init Retarget:     0.47s
  Step 4 - Init Visualization: 0.00s
  Step 5 - Process Frames:    207.30s (avg: 0.332s/frame)
  Step 6 - Convert Arrays:    0.00s
  Step 7 - Forward Kinematics: 2.25s
  Step 8 - Save Data:         0.03s
Status: SUCCESS
==================================================

=== SUCCESS LOG - 2025-10-14 16:23:00 ===
Input file: /data/retarget/locomotion/raw/AMASS_SMPLXG/MoSh/50026/light_hopping_stiff_stageii.npz
Output file: ../robot/ik_based/pkl/015111.pkl
Robot type: unitree_g1
Processing time: 130.48 seconds

STEP-BY-STEP TIMING:
  Step 1 - Load SMPLX:        18.04s
  Step 2 - Align FPS:         11.12s
  Step 3 - Init Retarget:     0.50s
  Step 4 - Init Visualization: 0.00s
  Step 5 - Process Frames:    96.53s (avg: 0.356s/frame)
  Step 6 - Convert Arrays:    0.00s
  Step 7 - Forward Kinematics: 2.27s
  Step 8 - Save Data:         0.05s
Status: SUCCESS
==================================================

=== SUCCESS LOG - 2025-10-14 16:23:03 ===
Input file: /data/retarget/locomotion/raw/AMASS_SMPLXG/MoSh/50027/light_hopping_stiff_stageii.npz
Output file: ../robot/ik_based/pkl/015117.pkl
Robot type: unitree_g1
Processing time: 86.90 seconds

STEP-BY-STEP TIMING:
  Step 1 - Load SMPLX:        22.02s
  Step 2 - Align FPS:         6.54s
  Step 3 - Init Retarget:     0.60s
  Step 4 - Init Visualization: 0.00s
  Step 5 - Process Frames:    54.08s (avg: 0.373s/frame)
  Step 6 - Convert Arrays:    0.01s
  Step 7 - Forward Kinematics: 2.04s
  Step 8 - Save Data:         0.02s
Status: SUCCESS
==================================================

=== ERROR LOG - 2025-10-14 16:23:16 ===
Input file: /data/retarget/locomotion/raw/AMASS_SMPLXG/PosePrior/03099/female_stagei.npz
Output file: ../robot/ik_based/pkl/015121.pkl
Robot type: unitree_g1
Processing time: 15.66 seconds
Error message: 'pose_body is not a file in the archive'
Error type: KeyError
==================================================

=== SUCCESS LOG - 2025-10-14 16:23:41 ===
Input file: /data/retarget/locomotion/raw/AMASS_SMPLXG/MoSh/50027/light_hopping_loose_stageii.npz
Output file: ../robot/ik_based/pkl/015116.pkl
Robot type: unitree_g1
Processing time: 129.64 seconds

STEP-BY-STEP TIMING:
  Step 1 - Load SMPLX:        21.35s
  Step 2 - Align FPS:         7.10s
  Step 3 - Init Retarget:     0.66s
  Step 4 - Init Visualization: 0.00s
  Step 5 - Process Frames:    94.91s (avg: 0.519s/frame)
  Step 6 - Convert Arrays:    0.00s
  Step 7 - Forward Kinematics: 3.93s
  Step 8 - Save Data:         0.05s
Status: SUCCESS
==================================================

=== SUCCESS LOG - 2025-10-14 16:24:03 ===
Input file: /data/retarget/locomotion/raw/AMASS_SMPLXG/MoSh/50026/misc_1_stageii.npz
Output file: ../robot/ik_based/pkl/015113.pkl
Robot type: unitree_g1
Processing time: 174.25 seconds

STEP-BY-STEP TIMING:
  Step 1 - Load SMPLX:        17.68s
  Step 2 - Align FPS:         13.40s
  Step 3 - Init Retarget:     0.79s
  Step 4 - Init Visualization: 0.02s
  Step 5 - Process Frames:    136.47s (avg: 0.505s/frame)
  Step 6 - Convert Arrays:    0.00s
  Step 7 - Forward Kinematics: 3.47s
  Step 8 - Save Data:         0.01s
Status: SUCCESS
==================================================

=== SUCCESS LOG - 2025-10-14 16:24:34 ===
Input file: /data/retarget/locomotion/raw/AMASS_SMPLXG/MoSh/50022/stretch_poses_stageii.npz
Output file: ../robot/ik_based/pkl/015101.pkl
Robot type: unitree_g1
Processing time: 361.93 seconds

STEP-BY-STEP TIMING:
  Step 1 - Load SMPLX:        16.34s
  Step 2 - Align FPS:         30.16s
  Step 3 - Init Retarget:     0.54s
  Step 4 - Init Visualization: 0.00s
  Step 5 - Process Frames:    305.58s (avg: 0.431s/frame)
  Step 6 - Convert Arrays:    0.00s
  Step 7 - Forward Kinematics: 3.20s
  Step 8 - Save Data:         0.06s
Status: SUCCESS
==================================================

=== SUCCESS LOG - 2025-10-14 16:24:42 ===
Input file: /data/retarget/locomotion/raw/AMASS_SMPLXG/MoSh/50026/jumping_jacks_1_stageii.npz
Output file: ../robot/ik_based/pkl/015109.pkl
Robot type: unitree_g1
Processing time: 272.96 seconds

STEP-BY-STEP TIMING:
  Step 1 - Load SMPLX:        17.72s
  Step 2 - Align FPS:         17.93s
  Step 3 - Init Retarget:     0.90s
  Step 4 - Init Visualization: 0.00s
  Step 5 - Process Frames:    230.49s (avg: 0.591s/frame)
  Step 6 - Convert Arrays:    0.00s
  Step 7 - Forward Kinematics: 3.80s
  Step 8 - Save Data:         0.06s
Status: SUCCESS
==================================================

=== SUCCESS LOG - 2025-10-14 16:25:32 ===
Input file: /data/retarget/locomotion/raw/AMASS_SMPLXG/MoSh/50027/jumping_jacks_stageii.npz
Output file: ../robot/ik_based/pkl/015115.pkl
Robot type: unitree_g1
Processing time: 251.96 seconds

STEP-BY-STEP TIMING:
  Step 1 - Load SMPLX:        16.38s
  Step 2 - Align FPS:         11.97s
  Step 3 - Init Retarget:     0.55s
  Step 4 - Init Visualization: 0.00s
  Step 5 - Process Frames:    218.59s (avg: 0.772s/frame)
  Step 6 - Convert Arrays:    0.00s
  Step 7 - Forward Kinematics: 2.63s
  Step 8 - Save Data:         0.03s
Status: SUCCESS
==================================================

=== SUCCESS LOG - 2025-10-14 16:25:32 ===
Input file: /data/retarget/locomotion/raw/AMASS_SMPLXG/MoSh/50026/stretches_1_stageii.npz
Output file: ../robot/ik_based/pkl/015114.pkl
Robot type: unitree_g1
Processing time: 262.55 seconds

STEP-BY-STEP TIMING:
  Step 1 - Load SMPLX:        17.48s
  Step 2 - Align FPS:         19.27s
  Step 3 - Init Retarget:     0.58s
  Step 4 - Init Visualization: 0.01s
  Step 5 - Process Frames:    221.21s (avg: 0.454s/frame)
  Step 6 - Convert Arrays:    0.00s
  Step 7 - Forward Kinematics: 2.12s
  Step 8 - Save Data:         0.06s
Status: SUCCESS
==================================================

=== SUCCESS LOG - 2025-10-14 16:27:56 ===
Input file: /data/retarget/locomotion/raw/AMASS_SMPLXG/MoSh/50027/stretches_stageii.npz
Output file: ../robot/ik_based/pkl/015120.pkl
Robot type: unitree_g1
Processing time: 300.91 seconds

STEP-BY-STEP TIMING:
  Step 1 - Load SMPLX:        15.98s
  Step 2 - Align FPS:         27.75s
  Step 3 - Init Retarget:     0.56s
  Step 4 - Init Visualization: 0.00s
  Step 5 - Process Frames:    251.98s (avg: 0.462s/frame)
  Step 6 - Convert Arrays:    0.00s
  Step 7 - Forward Kinematics: 2.57s
  Step 8 - Save Data:         0.08s
Status: SUCCESS
==================================================

=== SUCCESS LOG - 2025-10-14 16:29:12 ===
Input file: /data/retarget/locomotion/raw/AMASS_SMPLXG/PosePrior/03099/op1_stageii.npz
Output file: ../robot/ik_based/pkl/015127.pkl
Robot type: unitree_g1
Processing time: 268.85 seconds

STEP-BY-STEP TIMING:
  Step 1 - Load SMPLX:        21.62s
  Step 2 - Align FPS:         18.06s
  Step 3 - Init Retarget:     0.59s
  Step 4 - Init Visualization: 0.00s
  Step 5 - Process Frames:    223.05s (avg: 0.664s/frame)
  Step 6 - Convert Arrays:    0.02s
  Step 7 - Forward Kinematics: 2.73s
  Step 8 - Save Data:         0.05s
Status: SUCCESS
==================================================

=== SUCCESS LOG - 2025-10-14 16:29:44 ===
Input file: /data/retarget/locomotion/raw/AMASS_SMPLXG/PosePrior/03099/op2_stageii.npz
Output file: ../robot/ik_based/pkl/015128.pkl
Robot type: unitree_g1
Processing time: 251.88 seconds

STEP-BY-STEP TIMING:
  Step 1 - Load SMPLX:        19.35s
  Step 2 - Align FPS:         15.62s
  Step 3 - Init Retarget:     0.62s
  Step 4 - Init Visualization: 0.00s
  Step 5 - Process Frames:    212.50s (avg: 0.648s/frame)
  Step 6 - Convert Arrays:    0.00s
  Step 7 - Forward Kinematics: 2.28s
  Step 8 - Save Data:         0.04s
Status: SUCCESS
==================================================

=== SUCCESS LOG - 2025-10-14 16:30:17 ===
Input file: /data/retarget/locomotion/raw/AMASS_SMPLXG/MoSh/50027/misc_dancing_hiphop_stageii.npz
Output file: ../robot/ik_based/pkl/015119.pkl
Robot type: unitree_g1
Processing time: 447.43 seconds

STEP-BY-STEP TIMING:
  Step 1 - Load SMPLX:        15.65s
  Step 2 - Align FPS:         26.98s
  Step 3 - Init Retarget:     0.79s
  Step 4 - Init Visualization: 0.03s
  Step 5 - Process Frames:    398.89s (avg: 0.669s/frame)
  Step 6 - Convert Arrays:    0.00s
  Step 7 - Forward Kinematics: 2.41s
  Step 8 - Save Data:         0.04s
Status: SUCCESS
==================================================

=== SUCCESS LOG - 2025-10-14 16:32:27 ===
Input file: /data/retarget/locomotion/raw/AMASS_SMPLXG/PosePrior/03099/op5_stageii.npz
Output file: ../robot/ik_based/pkl/015131.pkl
Robot type: unitree_g1
Processing time: 194.61 seconds

STEP-BY-STEP TIMING:
  Step 1 - Load SMPLX:        19.38s
  Step 2 - Align FPS:         9.38s
  Step 3 - Init Retarget:     0.53s
  Step 4 - Init Visualization: 0.00s
  Step 5 - Process Frames:    160.03s (avg: 0.714s/frame)
  Step 6 - Convert Arrays:    0.00s
  Step 7 - Forward Kinematics: 2.94s
  Step 8 - Save Data:         0.03s
Status: SUCCESS
==================================================

=== SUCCESS LOG - 2025-10-14 16:33:29 ===
Input file: /data/retarget/locomotion/raw/AMASS_SMPLXG/PosePrior/03099/op7_stageii.npz
Output file: ../robot/ik_based/pkl/015132.pkl
Robot type: unitree_g1
Processing time: 223.60 seconds

STEP-BY-STEP TIMING:
  Step 1 - Load SMPLX:        20.52s
  Step 2 - Align FPS:         10.13s
  Step 3 - Init Retarget:     0.59s
  Step 4 - Init Visualization: 0.00s
  Step 5 - Process Frames:    186.70s (avg: 0.744s/frame)
  Step 6 - Convert Arrays:    0.00s
  Step 7 - Forward Kinematics: 2.91s
  Step 8 - Save Data:         0.07s
Status: SUCCESS
==================================================

=== SUCCESS LOG - 2025-10-14 16:33:34 ===
Input file: /data/retarget/locomotion/raw/AMASS_SMPLXG/PosePrior/03099/op4_stageii.npz
Output file: ../robot/ik_based/pkl/015130.pkl
Robot type: unitree_g1
Processing time: 336.69 seconds

STEP-BY-STEP TIMING:
  Step 1 - Load SMPLX:        20.52s
  Step 2 - Align FPS:         18.40s
  Step 3 - Init Retarget:     0.69s
  Step 4 - Init Visualization: 0.00s
  Step 5 - Process Frames:    293.30s (avg: 0.746s/frame)
  Step 6 - Convert Arrays:    0.01s
  Step 7 - Forward Kinematics: 1.89s
  Step 8 - Save Data:         0.04s
Status: SUCCESS
==================================================

=== SUCCESS LOG - 2025-10-14 16:33:34 ===
Input file: /data/retarget/locomotion/raw/AMASS_SMPLXG/PosePrior/03099/op3_stageii.npz
Output file: ../robot/ik_based/pkl/015129.pkl
Robot type: unitree_g1
Processing time: 481.08 seconds

STEP-BY-STEP TIMING:
  Step 1 - Load SMPLX:        18.93s
  Step 2 - Align FPS:         27.46s
  Step 3 - Init Retarget:     0.62s
  Step 4 - Init Visualization: 0.00s
  Step 5 - Process Frames:    429.87s (avg: 0.745s/frame)
  Step 6 - Convert Arrays:    0.00s
  Step 7 - Forward Kinematics: 2.24s
  Step 8 - Save Data:         0.03s
Status: SUCCESS
==================================================

=== SUCCESS LOG - 2025-10-14 16:34:01 ===
Input file: /data/retarget/locomotion/raw/AMASS_SMPLXG/PosePrior/03099/op8_stageii.npz
Output file: ../robot/ik_based/pkl/015133.pkl
Robot type: unitree_g1
Processing time: 222.53 seconds

STEP-BY-STEP TIMING:
  Step 1 - Load SMPLX:        19.17s
  Step 2 - Align FPS:         9.99s
  Step 3 - Init Retarget:     0.67s
  Step 4 - Init Visualization: 0.01s
  Step 5 - Process Frames:    187.15s (avg: 0.773s/frame)
  Step 6 - Convert Arrays:    0.00s
  Step 7 - Forward Kinematics: 3.39s
  Step 8 - Save Data:         0.02s
Status: SUCCESS
==================================================

=== SUCCESS LOG - 2025-10-14 16:34:08 ===
Input file: /data/retarget/locomotion/raw/AMASS_SMPLXG/PosePrior/03099/lar5_stageii.npz
Output file: ../robot/ik_based/pkl/015126.pkl
Robot type: unitree_g1
Processing time: 573.09 seconds

STEP-BY-STEP TIMING:
  Step 1 - Load SMPLX:        24.05s
  Step 2 - Align FPS:         41.03s
  Step 3 - Init Retarget:     0.46s
  Step 4 - Init Visualization: 0.00s
  Step 5 - Process Frames:    501.91s (avg: 0.473s/frame)
  Step 6 - Convert Arrays:    0.00s
  Step 7 - Forward Kinematics: 2.68s
  Step 8 - Save Data:         0.08s
Status: SUCCESS
==================================================

=== SUCCESS LOG - 2025-10-14 16:35:39 ===
Input file: /data/retarget/locomotion/raw/AMASS_SMPLXG/PosePrior/03099/lar3_stageii.npz
Output file: ../robot/ik_based/pkl/015124.pkl
Robot type: unitree_g1
Processing time: 717.85 seconds

STEP-BY-STEP TIMING:
  Step 1 - Load SMPLX:        25.54s
  Step 2 - Align FPS:         49.24s
  Step 3 - Init Retarget:     0.53s
  Step 4 - Init Visualization: 0.00s
  Step 5 - Process Frames:    637.94s (avg: 0.570s/frame)
  Step 6 - Convert Arrays:    0.00s
  Step 7 - Forward Kinematics: 2.36s
  Step 8 - Save Data:         0.03s
Status: SUCCESS
==================================================

=== ERROR LOG - 2025-10-14 16:35:58 ===
Input file: /data/retarget/locomotion/raw/AMASS_SMPLXG/PosePrior/03100/male_stagei.npz
Output file: ../robot/ik_based/pkl/015140.pkl
Robot type: unitree_g1
Processing time: 17.06 seconds
Error message: 'pose_body is not a file in the archive'
Error type: KeyError
==================================================

=== SUCCESS LOG - 2025-10-14 16:36:40 ===
Input file: /data/retarget/locomotion/raw/AMASS_SMPLXG/PosePrior/03099/lar2_stageii.npz
Output file: ../robot/ik_based/pkl/015123.pkl
Robot type: unitree_g1
Processing time: 803.82 seconds

STEP-BY-STEP TIMING:
  Step 1 - Load SMPLX:        24.90s
  Step 2 - Align FPS:         50.31s
  Step 3 - Init Retarget:     0.80s
  Step 4 - Init Visualization: 0.01s
  Step 5 - Process Frames:    721.39s (avg: 0.656s/frame)
  Step 6 - Convert Arrays:    0.01s
  Step 7 - Forward Kinematics: 3.64s
  Step 8 - Save Data:         0.06s
Status: SUCCESS
==================================================

=== SUCCESS LOG - 2025-10-14 16:38:52 ===
Input file: /data/retarget/locomotion/raw/AMASS_SMPLXG/PosePrior/03099/lar1_stageii.npz
Output file: ../robot/ik_based/pkl/015122.pkl
Robot type: unitree_g1
Processing time: 948.16 seconds

STEP-BY-STEP TIMING:
  Step 1 - Load SMPLX:        19.05s
  Step 2 - Align FPS:         54.85s
  Step 3 - Init Retarget:     0.42s
  Step 4 - Init Visualization: 0.00s
  Step 5 - Process Frames:    868.19s (avg: 0.587s/frame)
  Step 6 - Convert Arrays:    0.01s
  Step 7 - Forward Kinematics: 3.17s
  Step 8 - Save Data:         0.06s
Status: SUCCESS
==================================================

=== SUCCESS LOG - 2025-10-14 16:39:53 ===
Input file: /data/retarget/locomotion/raw/AMASS_SMPLXG/PosePrior/03099/lar4_stageii.npz
Output file: ../robot/ik_based/pkl/015125.pkl
Robot type: unitree_g1
Processing time: 949.17 seconds

STEP-BY-STEP TIMING:
  Step 1 - Load SMPLX:        23.08s
  Step 2 - Align FPS:         52.52s
  Step 3 - Init Retarget:     0.71s
  Step 4 - Init Visualization: 0.00s
  Step 5 - Process Frames:    867.55s (avg: 0.730s/frame)
  Step 6 - Convert Arrays:    0.02s
  Step 7 - Forward Kinematics: 3.15s
  Step 8 - Save Data:         0.08s
Status: SUCCESS
==================================================

=== SUCCESS LOG - 2025-10-14 16:41:13 ===
Input file: /data/retarget/locomotion/raw/AMASS_SMPLXG/PosePrior/03099/op9_stageii.npz
Output file: ../robot/ik_based/pkl/015134.pkl
Robot type: unitree_g1
Processing time: 524.67 seconds

STEP-BY-STEP TIMING:
  Step 1 - Load SMPLX:        19.40s
  Step 2 - Align FPS:         28.08s
  Step 3 - Init Retarget:     0.58s
  Step 4 - Init Visualization: 0.00s
  Step 5 - Process Frames:    470.38s (avg: 0.656s/frame)
  Step 6 - Convert Arrays:    0.00s
  Step 7 - Forward Kinematics: 3.78s
  Step 8 - Save Data:         0.06s
Status: SUCCESS
==================================================

=== SUCCESS LOG - 2025-10-14 16:43:28 ===
[...]
Input file: /data/retarget/locomotion/raw/AMASS_SMPLXG/WEIZMANN/66/Normal_StraightLong(36)_stageii.npz
Output file: ../robot/ik_based/pkl/015846.pkl
Robot type: unitree_g1
Processing time: 34.23 seconds

STEP-BY-STEP TIMING:
  Step 1 - Load SMPLX:        8.20s
  Step 2 - Align FPS:         0.92s
  Step 3 - Init Retarget:     0.39s
  Step 4 - Init Visualization: 0.00s
  Step 5 - Process Frames:    22.17s (avg: 0.403s/frame)
  Step 6 - Convert Arrays:    0.00s
  Step 7 - Forward Kinematics: 1.87s
  Step 8 - Save Data:         0.01s
Status: SUCCESS
==================================================

=== SUCCESS LOG - 2025-10-14 21:19:42 ===
Input file: /data/retarget/locomotion/raw/AMASS_SMPLXG/WEIZMANN/66/Normal_StraightLong(37)_stageii.npz
Output file: ../robot/ik_based/pkl/015847.pkl
Robot type: unitree_g1
Processing time: 32.09 seconds

STEP-BY-STEP TIMING:
  Step 1 - Load SMPLX:        7.55s
  Step 2 - Align FPS:         1.09s
  Step 3 - Init Retarget:     0.32s
  Step 4 - Init Visualization: 0.00s
  Step 5 - Process Frames:    20.86s (avg: 0.464s/frame)
  Step 6 - Convert Arrays:    0.00s
  Step 7 - Forward Kinematics: 1.49s
  Step 8 - Save Data:         0.01s
Status: SUCCESS
==================================================

=== SUCCESS LOG - 2025-10-14 21:19:42 ===
Input file: /data/retarget/locomotion/raw/AMASS_SMPLXG/WEIZMANN/66/Normal_StraightLong(39)_stageii.npz
Output file: ../robot/ik_based/pkl/015849.pkl
Robot type: unitree_g1
Processing time: 30.46 seconds

STEP-BY-STEP TIMING:
  Step 1 - Load SMPLX:        8.21s
  Step 2 - Align FPS:         1.34s
  Step 3 - Init Retarget:     0.49s
  Step 4 - Init Visualization: 0.00s
  Step 5 - Process Frames:    18.67s (avg: 0.445s/frame)
  Step 6 - Convert Arrays:    0.00s
  Step 7 - Forward Kinematics: 1.05s
  Step 8 - Save Data:         0.01s
Status: SUCCESS
==================================================

=== SUCCESS LOG - 2025-10-14 21:19:42 ===
Input file: /data/retarget/locomotion/raw/AMASS_SMPLXG/WEIZMANN/66/Normal_StraightLong(4)_stageii.npz
Output file: ../robot/ik_based/pkl/015850.pkl
Robot type: unitree_g1
Processing time: 30.58 seconds

STEP-BY-STEP TIMING:
  Step 1 - Load SMPLX:        8.52s
  Step 2 - Align FPS:         1.65s
  Step 3 - Init Retarget:     0.72s
  Step 4 - Init Visualization: 0.00s
  Step 5 - Process Frames:    18.03s (avg: 0.440s/frame)
  Step 6 - Convert Arrays:    0.00s
  Step 7 - Forward Kinematics: 0.87s
  Step 8 - Save Data:         0.00s
Status: SUCCESS
==================================================

=== SUCCESS LOG - 2025-10-14 21:19:42 ===
Input file: /data/retarget/locomotion/raw/AMASS_SMPLXG/WEIZMANN/66/Normal_StraightLong(38)_stageii.npz
Output file: ../robot/ik_based/pkl/015848.pkl
Robot type: unitree_g1
Processing time: 31.22 seconds

STEP-BY-STEP TIMING:
  Step 1 - Load SMPLX:        7.64s
  Step 2 - Align FPS:         1.27s
  Step 3 - Init Retarget:     0.45s
  Step 4 - Init Visualization: 0.00s
  Step 5 - Process Frames:    20.54s (avg: 0.437s/frame)
  Step 6 - Convert Arrays:    0.00s
  Step 7 - Forward Kinematics: 0.76s
  Step 8 - Save Data:         0.00s
Status: SUCCESS
==================================================

=== SUCCESS LOG - 2025-10-14 21:19:43 ===
Input file: /data/retarget/locomotion/raw/AMASS_SMPLXG/WEIZMANN/66/Normal_StraightLong(41)_stageii.npz
Output file: ../robot/ik_based/pkl/015852.pkl
Robot type: unitree_g1
Processing time: 30.41 seconds

STEP-BY-STEP TIMING:
  Step 1 - Load SMPLX:        10.72s
  Step 2 - Align FPS:         1.58s
  Step 3 - Init Retarget:     0.61s
  Step 4 - Init Visualization: 0.00s
  Step 5 - Process Frames:    16.38s (avg: 0.399s/frame)
  Step 6 - Convert Arrays:    0.00s
  Step 7 - Forward Kinematics: 0.82s
  Step 8 - Save Data:         0.00s
Status: SUCCESS
==================================================

=== SUCCESS LOG - 2025-10-14 21:19:43 ===
Input file: /data/retarget/locomotion/raw/AMASS_SMPLXG/WEIZMANN/66/Normal_StraightLong(40)_stageii.npz
Output file: ../robot/ik_based/pkl/015851.pkl
Robot type: unitree_g1
Processing time: 30.79 seconds

STEP-BY-STEP TIMING:
  Step 1 - Load SMPLX:        9.72s
  Step 2 - Align FPS:         1.32s
  Step 3 - Init Retarget:     0.79s
  Step 4 - Init Visualization: 0.00s
  Step 5 - Process Frames:    17.89s (avg: 0.407s/frame)
  Step 6 - Convert Arrays:    0.00s
  Step 7 - Forward Kinematics: 0.75s
  Step 8 - Save Data:         0.00s
Status: SUCCESS
==================================================

=== SUCCESS LOG - 2025-10-14 21:19:44 ===
Input file: /data/retarget/locomotion/raw/AMASS_SMPLXG/WEIZMANN/66/Normal_StraightLong(42)_stageii.npz
Output file: ../robot/ik_based/pkl/015853.pkl
Robot type: unitree_g1
Processing time: 27.17 seconds

STEP-BY-STEP TIMING:
  Step 1 - Load SMPLX:        16.41s
  Step 2 - Align FPS:         1.99s
  Step 3 - Init Retarget:     0.83s
  Step 4 - Init Visualization: 0.00s
  Step 5 - Process Frames:    7.55s (avg: 0.204s/frame)
  Step 6 - Convert Arrays:    0.00s
  Step 7 - Forward Kinematics: 0.11s
  Step 8 - Save Data:         0.00s
Status: SUCCESS
==================================================

=== SUCCESS LOG - 2025-10-14 21:20:04 ===
Input file: /data/retarget/locomotion/raw/AMASS_SMPLXG/WEIZMANN/66/Normal_StraightLong(43)_stageii.npz
Output file: ../robot/ik_based/pkl/015854.pkl
Robot type: unitree_g1
Processing time: 28.22 seconds

STEP-BY-STEP TIMING:
  Step 1 - Load SMPLX:        7.29s
  Step 2 - Align FPS:         0.50s
  Step 3 - Init Retarget:     0.21s
  Step 4 - Init Visualization: 0.00s
  Step 5 - Process Frames:    16.21s (avg: 0.386s/frame)
  Step 6 - Convert Arrays:    0.00s
  Step 7 - Forward Kinematics: 2.41s
  Step 8 - Save Data:         0.05s
Status: SUCCESS
==================================================

=== SUCCESS LOG - 2025-10-14 21:20:07 ===
Input file: /data/retarget/locomotion/raw/AMASS_SMPLXG/WEIZMANN/66/Normal_StraightLong(44)_stageii.npz
Output file: ../robot/ik_based/pkl/015855.pkl
Robot type: unitree_g1
Processing time: 26.62 seconds

STEP-BY-STEP TIMING:
  Step 1 - Load SMPLX:        4.18s
  Step 2 - Align FPS:         0.62s
  Step 3 - Init Retarget:     0.27s
  Step 4 - Init Visualization: 0.00s
  Step 5 - Process Frames:    16.71s (avg: 0.478s/frame)
  Step 6 - Convert Arrays:    0.00s
  Step 7 - Forward Kinematics: 2.54s
  Step 8 - Save Data:         0.04s
Status: SUCCESS
==================================================

=== SUCCESS LOG - 2025-10-14 21:20:09 ===
Input file: /data/retarget/locomotion/raw/AMASS_SMPLXG/WEIZMANN/66/Normal_StraightLong(45)_stageii.npz
Output file: ../robot/ik_based/pkl/015856.pkl
Robot type: unitree_g1
Processing time: 27.46 seconds

STEP-BY-STEP TIMING:
  Step 1 - Load SMPLX:        3.62s
  Step 2 - Align FPS:         1.23s
  Step 3 - Init Retarget:     1.11s
  Step 4 - Init Visualization: 0.00s
  Step 5 - Process Frames:    18.54s (avg: 0.431s/frame)
  Step 6 - Convert Arrays:    0.01s
  Step 7 - Forward Kinematics: 1.89s
  Step 8 - Save Data:         0.02s
Status: SUCCESS
==================================================

=== SUCCESS LOG - 2025-10-14 21:20:09 ===
Input file: /data/retarget/locomotion/raw/AMASS_SMPLXG/WEIZMANN/66/Normal_StraightLong(47)_stageii.npz
Output file: ../robot/ik_based/pkl/015858.pkl
Robot type: unitree_g1
Processing time: 27.35 seconds

STEP-BY-STEP TIMING:
  Step 1 - Load SMPLX:        3.73s
  Step 2 - Align FPS:         1.58s
  Step 3 - Init Retarget:     1.42s
  Step 4 - Init Visualization: 0.01s
  Step 5 - Process Frames:    18.03s (avg: 0.462s/frame)
  Step 6 - Convert Arrays:    0.00s
  Step 7 - Forward Kinematics: 1.61s
  Step 8 - Save Data:         0.01s
Status: SUCCESS
==================================================

=== SUCCESS LOG - 2025-10-14 21:20:10 ===
Input file: /data/retarget/locomotion/raw/AMASS_SMPLXG/WEIZMANN/66/Normal_StraightLong(48)_stageii.npz
Output file: ../robot/ik_based/pkl/015859.pkl
Robot type: unitree_g1
Processing time: 27.75 seconds

STEP-BY-STEP TIMING:
  Step 1 - Load SMPLX:        3.91s
  Step 2 - Align FPS:         1.95s
  Step 3 - Init Retarget:     2.07s
  Step 4 - Init Visualization: 0.01s
  Step 5 - Process Frames:    17.46s (avg: 0.436s/frame)
  Step 6 - Convert Arrays:    0.00s
  Step 7 - Forward Kinematics: 1.40s
  Step 8 - Save Data:         0.01s
Status: SUCCESS
==================================================

=== SUCCESS LOG - 2025-10-14 21:20:11 ===
Input file: /data/retarget/locomotion/raw/AMASS_SMPLXG/WEIZMANN/66/Normal_StraightLong(46)_stageii.npz
Output file: ../robot/ik_based/pkl/015857.pkl
Robot type: unitree_g1
Processing time: 28.72 seconds

STEP-BY-STEP TIMING:
  Step 1 - Load SMPLX:        3.52s
  Step 2 - Align FPS:         1.88s
  Step 3 - Init Retarget:     1.61s
  Step 4 - Init Visualization: 0.02s
  Step 5 - Process Frames:    19.55s (avg: 0.477s/frame)
  Step 6 - Convert Arrays:    0.00s
  Step 7 - Forward Kinematics: 1.16s
  Step 8 - Save Data:         0.03s
Status: SUCCESS
==================================================

=== SUCCESS LOG - 2025-10-14 21:20:11 ===
Input file: /data/retarget/locomotion/raw/AMASS_SMPLXG/WEIZMANN/66/Normal_StraightLong(50)_stageii.npz
Output file: ../robot/ik_based/pkl/015862.pkl
Robot type: unitree_g1
Processing time: 27.88 seconds

STEP-BY-STEP TIMING:
  Step 1 - Load SMPLX:        6.00s
  Step 2 - Align FPS:         1.10s
  Step 3 - Init Retarget:     1.09s
  Step 4 - Init Visualization: 0.00s
  Step 5 - Process Frames:    17.50s (avg: 0.417s/frame)
  Step 6 - Convert Arrays:    0.00s
  Step 7 - Forward Kinematics: 1.14s
  Step 8 - Save Data:         0.02s
Status: SUCCESS
==================================================

=== SUCCESS LOG - 2025-10-14 21:20:12 ===
Input file: /data/retarget/locomotion/raw/AMASS_SMPLXG/WEIZMANN/66/Normal_StraightLong(49)_stageii.npz
Output file: ../robot/ik_based/pkl/015860.pkl
Robot type: unitree_g1
Processing time: 29.35 seconds

STEP-BY-STEP TIMING:
  Step 1 - Load SMPLX:        4.34s
  Step 2 - Align FPS:         1.55s
  Step 3 - Init Retarget:     2.08s
  Step 4 - Init Visualization: 0.01s
  Step 5 - Process Frames:    20.68s (avg: 0.406s/frame)
  Step 6 - Convert Arrays:    0.00s
  Step 7 - Forward Kinematics: 0.40s
  Step 8 - Save Data:         0.00s
Status: SUCCESS
==================================================

=== SUCCESS LOG - 2025-10-14 21:20:12 ===
Input file: /data/retarget/locomotion/raw/AMASS_SMPLXG/WEIZMANN/66/Normal_StraightLong(5)_stageii.npz
Output file: ../robot/ik_based/pkl/015861.pkl
Robot type: unitree_g1
Processing time: 29.01 seconds

STEP-BY-STEP TIMING:
  Step 1 - Load SMPLX:        6.18s
  Step 2 - Align FPS:         1.63s
  Step 3 - Init Retarget:     0.65s
  Step 4 - Init Visualization: 0.01s
  Step 5 - Process Frames:    19.93s (avg: 0.369s/frame)
  Step 6 - Convert Arrays:    0.00s
  Step 7 - Forward Kinematics: 0.27s
  Step 8 - Save Data:         0.00s
Status: SUCCESS
==================================================

=== SUCCESS LOG - 2025-10-14 21:20:12 ===
Input file: /data/retarget/locomotion/raw/AMASS_SMPLXG/WEIZMANN/66/Normal_StraightLong(6)_stageii.npz
Output file: ../robot/ik_based/pkl/015863.pkl
Robot type: unitree_g1
Processing time: 28.02 seconds

STEP-BY-STEP TIMING:
  Step 1 - Load SMPLX:        12.27s
  Step 2 - Align FPS:         1.79s
  Step 3 - Init Retarget:     0.64s
  Step 4 - Init Visualization: 0.00s
  Step 5 - Process Frames:    12.97s (avg: 0.302s/frame)
  Step 6 - Convert Arrays:    0.00s
  Step 7 - Forward Kinematics: 0.26s
  Step 8 - Save Data:         0.00s
Status: SUCCESS
==================================================

=== SUCCESS LOG - 2025-10-14 21:20:25 ===
Input file: /data/retarget/locomotion/raw/AMASS_SMPLXG/WEIZMANN/66/Normal_StraightLong(8)_stageii.npz
Output file: ../robot/ik_based/pkl/015865.pkl
Robot type: unitree_g1
Processing time: 17.27 seconds

STEP-BY-STEP TIMING:
  Step 1 - Load SMPLX:        5.51s
  Step 2 - Align FPS:         0.78s
  Step 3 - Init Retarget:     0.24s
  Step 4 - Init Visualization: 0.00s
  Step 5 - Process Frames:    8.48s (avg: 0.193s/frame)
  Step 6 - Convert Arrays:    0.00s
  Step 7 - Forward Kinematics: 0.84s
  Step 8 - Save Data:         0.01s
Status: SUCCESS
==================================================

=== SUCCESS LOG - 2025-10-14 21:20:27 ===
Input file: /data/retarget/locomotion/raw/AMASS_SMPLXG/WEIZMANN/66/Normal_StraightLong(7)_stageii.npz
Output file: ../robot/ik_based/pkl/015864.pkl
Robot type: unitree_g1
Processing time: 21.88 seconds

STEP-BY-STEP TIMING:
  Step 1 - Load SMPLX:        7.38s
  Step 2 - Align FPS:         0.70s
  Step 3 - Init Retarget:     0.25s
  Step 4 - Init Visualization: 0.00s
  Step 5 - Process Frames:    10.30s (avg: 0.198s/frame)
  Step 6 - Convert Arrays:    0.00s
  Step 7 - Forward Kinematics: 1.39s
  Step 8 - Save Data:         0.00s
Status: SUCCESS
==================================================

=== SUCCESS LOG - 2025-10-14 21:20:56 ===
Input file: /data/retarget/locomotion/raw/AMASS_SMPLXG/WEIZMANN/66/Normal_StraightLong(9)_stageii.npz
Output file: ../robot/ik_based/pkl/015866.pkl
Robot type: unitree_g1
Processing time: 46.12 seconds

STEP-BY-STEP TIMING:
  Step 1 - Load SMPLX:        4.53s
  Step 2 - Align FPS:         1.65s
  Step 3 - Init Retarget:     1.04s
  Step 4 - Init Visualization: 0.00s
  Step 5 - Process Frames:    25.83s (avg: 0.417s/frame)
  Step 6 - Convert Arrays:    0.04s
  Step 7 - Forward Kinematics: 6.43s
  Step 8 - Save Data:         0.12s
Status: SUCCESS
==================================================

=== SUCCESS LOG - 2025-10-14 21:33:44 ===
Input file: /data/retarget/locomotion/raw/AMASS_SMPLXG/WEIZMANN/66/Slow_AFig8CCW(3)_stageii.npz
Output file: ../robot/ik_based/pkl/015872.pkl
Robot type: unitree_g1
Processing time: 811.97 seconds

STEP-BY-STEP TIMING:
  Step 1 - Load SMPLX:        17.48s
  Step 2 - Align FPS:         131.73s
  Step 3 - Init Retarget:     1.85s
  Step 4 - Init Visualization: 0.00s
  Step 5 - Process Frames:    655.76s (avg: 0.417s/frame)
  Step 6 - Convert Arrays:    0.02s
  Step 7 - Forward Kinematics: 2.84s
  Step 8 - Save Data:         0.09s
Status: SUCCESS
==================================================

=== SUCCESS LOG - 2025-10-14 21:34:19 ===
Input file: /data/retarget/locomotion/raw/AMASS_SMPLXG/WEIZMANN/66/Normal_StraightShort(2)_stageii.npz
Output file: ../robot/ik_based/pkl/015868.pkl
Robot type: unitree_g1
Processing time: 848.89 seconds

STEP-BY-STEP TIMING:
  Step 1 - Load SMPLX:        14.64s
  Step 2 - Align FPS:         129.50s
  Step 3 - Init Retarget:     2.41s
  Step 4 - Init Visualization: 0.01s
  Step 5 - Process Frames:    694.83s (avg: 0.445s/frame)
  Step 6 - Convert Arrays:    0.01s
  Step 7 - Forward Kinematics: 4.36s
  Step 8 - Save Data:         0.06s
Status: SUCCESS
==================================================

=== SUCCESS LOG - 2025-10-14 21:34:39 ===
Input file: /data/retarget/locomotion/raw/AMASS_SMPLXG/WEIZMANN/66/Slow_AFig8CW(2)_aGtmku7_stageii.npz
Output file: ../robot/ik_based/pkl/015873.pkl
Robot type: unitree_g1
Processing time: 867.18 seconds

STEP-BY-STEP TIMING:
  Step 1 - Load SMPLX:        17.68s
  Step 2 - Align FPS:         132.93s
  Step 3 - Init Retarget:     0.54s
  Step 4 - Init Visualization: 0.00s
  Step 5 - Process Frames:    711.11s (avg: 0.449s/frame)
  Step 6 - Convert Arrays:    0.02s
  Step 7 - Forward Kinematics: 2.51s
  Step 8 - Save Data:         0.07s
Status: SUCCESS
==================================================

=== SUCCESS LOG - 2025-10-14 21:34:45 ===
Input file: /data/retarget/locomotion/raw/AMASS_SMPLXG/WEIZMANN/66/Slow_AFig8CCW(1)_stageii.npz
Output file: ../robot/ik_based/pkl/015870.pkl
Robot type: unitree_g1
Processing time: 874.30 seconds

STEP-BY-STEP TIMING:
  Step 1 - Load SMPLX:        16.45s
  Step 2 - Align FPS:         125.39s
  Step 3 - Init Retarget:     3.99s
  Step 4 - Init Visualization: 0.04s
  Step 5 - Process Frames:    725.50s (avg: 0.446s/frame)
  Step 6 - Convert Arrays:    0.00s
  Step 7 - Forward Kinematics: 1.62s
  Step 8 - Save Data:         0.03s
Status: SUCCESS
==================================================

=== SUCCESS LOG - 2025-10-14 21:34:46 ===
Input file: /data/retarget/locomotion/raw/AMASS_SMPLXG/WEIZMANN/66/Slow_CircleCCW(2)_stageii.npz
Output file: ../robot/ik_based/pkl/015876.pkl
Robot type: unitree_g1
Processing time: 829.46 seconds

STEP-BY-STEP TIMING:
  Step 1 - Load SMPLX:        50.42s
  Step 2 - Align FPS:         92.76s
  Step 3 - Init Retarget:     0.60s
  Step 4 - Init Visualization: 0.00s
  Step 5 - Process Frames:    682.01s (avg: 0.430s/frame)
  Step 6 - Convert Arrays:    0.02s
  Step 7 - Forward Kinematics: 1.55s
  Step 8 - Save Data:         0.04s
Status: SUCCESS
==================================================

=== SUCCESS LOG - 2025-10-14 21:35:01 ===
Input file: /data/retarget/locomotion/raw/AMASS_SMPLXG/WEIZMANN/66/Slow_AFig8CW(2)_stageii.npz
Output file: ../robot/ik_based/pkl/015874.pkl
Robot type: unitree_g1
Processing time: 876.06 seconds

STEP-BY-STEP TIMING:
  Step 1 - Load SMPLX:        41.33s
  Step 2 - Align FPS:         126.22s
  Step 3 - Init Retarget:     0.68s
  Step 4 - Init Visualization: 0.00s
  Step 5 - Process Frames:    702.28s (avg: 0.444s/frame)
  Step 6 - Convert Arrays:    0.02s
  Step 7 - Forward Kinematics: 3.04s
  Step 8 - Save Data:         0.02s
Status: SUCCESS
==================================================

=== SUCCESS LOG - 2025-10-14 21:35:10 ===
Input file: /data/retarget/locomotion/raw/AMASS_SMPLXG/WEIZMANN/66/Slow_CircleCCW(1)_stageii.npz
Output file: ../robot/ik_based/pkl/015875.pkl
Robot type: unitree_g1
Processing time: 882.30 seconds

STEP-BY-STEP TIMING:
  Step 1 - Load SMPLX:        45.47s
  Step 2 - Align FPS:         120.39s
  Step 3 - Init Retarget:     0.64s
  Step 4 - Init Visualization: 0.00s
  Step 5 - Process Frames:    709.69s (avg: 0.440s/frame)
  Step 6 - Convert Arrays:    0.03s
  Step 7 - Forward Kinematics: 3.63s
  Step 8 - Save Data:         0.03s
Status: SUCCESS
==================================================

=== SUCCESS LOG - 2025-10-14 21:36:19 ===
Input file: /data/retarget/locomotion/raw/AMASS_SMPLXG/WEIZMANN/66/Slow_AFig8CCW(2)_stageii.npz
Output file: ../robot/ik_based/pkl/015871.pkl
Robot type: unitree_g1
Processing time: 966.61 seconds

STEP-BY-STEP TIMING:
  Step 1 - Load SMPLX:        17.33s
  Step 2 - Align FPS:         130.79s
  Step 3 - Init Retarget:     1.81s
  Step 4 - Init Visualization: 0.09s
  Step 5 - Process Frames:    806.54s (avg: 0.469s/frame)
  Step 6 - Convert Arrays:    0.02s
  Step 7 - Forward Kinematics: 5.05s
  Step 8 - Save Data:         0.11s
Status: SUCCESS
==================================================

=== SUCCESS LOG - 2025-10-14 21:36:59 ===
Input file: /data/retarget/locomotion/raw/AMASS_SMPLXG/WEIZMANN/66/Normal_StraightShort(1)_stageii.npz
Output file: ../robot/ik_based/pkl/015867.pkl
Robot type: unitree_g1
Processing time: 1009.03 seconds

STEP-BY-STEP TIMING:
  Step 1 - Load SMPLX:        11.38s
  Step 2 - Align FPS:         127.16s
  Step 3 - Init Retarget:     3.61s
  Step 4 - Init Visualization: 0.00s
  Step 5 - Process Frames:    858.95s (avg: 0.476s/frame)
  Step 6 - Convert Arrays:    0.01s
  Step 7 - Forward Kinematics: 2.74s
  Step 8 - Save Data:         0.12s
Status: SUCCESS
==================================================

=== SUCCESS LOG - 2025-10-14 21:40:45 ===
Input file: /data/retarget/locomotion/raw/AMASS_SMPLXG/WEIZMANN/66/Normal_StraightShort(3)_stageii.npz
Output file: ../robot/ik_based/pkl/015869.pkl
Robot type: unitree_g1
Processing time: 1233.64 seconds

STEP-BY-STEP TIMING:
  Step 1 - Load SMPLX:        16.88s
  Step 2 - Align FPS:         169.20s
  Step 3 - Init Retarget:     0.83s
  Step 4 - Init Visualization: 0.00s
  Step 5 - Process Frames:    1044.91s (avg: 0.470s/frame)
  Step 6 - Convert Arrays:    0.12s
  Step 7 - Forward Kinematics: 0.75s
  Step 8 - Save Data:         0.06s
Status: SUCCESS
==================================================
