
=== ERROR LOG - 2025-10-14 15:28:22 ===
Input file: /data/retarget/locomotion/raw/AMASS_SMPLXG/CMU/128/male_stagei.npz
Output file: ../robot/ik_based/pkl/006000.pkl
Robot type: unitree_g1
Processing time: 1.01 seconds
Error message: 'pose_body is not a file in the archive'
Error type: KeyError
==================================================

=== SUCCESS LOG - 2025-10-14 15:29:34 ===
Input file: /data/retarget/locomotion/raw/AMASS_SMPLXG/CMU/13/13_01_stageii.npz
Output file: ../robot/ik_based/pkl/006001.pkl
Robot type: unitree_g1
Processing time: 73.51 seconds

STEP-BY-STEP TIMING:
  Step 1 - Load SMPLX:        2.12s
  Step 2 - Align FPS:         13.92s
  Step 3 - Init Retarget:     1.27s
  Step 4 - Init Visualization: 0.00s
  Step 5 - Process Frames:    54.25s (avg: 0.094s/frame)
  Step 6 - Convert Arrays:    0.00s
  Step 7 - Forward Kinematics: 1.36s
  Step 8 - Save Data:         0.01s
Status: SUCCESS
==================================================

=== SUCCESS LOG - 2025-10-14 15:30:14 ===
Input file: /data/retarget/locomotion/raw/AMASS_SMPLXG/CMU/13/13_02_stageii.npz
Output file: ../robot/ik_based/pkl/006002.pkl
Robot type: unitree_g1
Processing time: 113.43 seconds

STEP-BY-STEP TIMING:
  Step 1 - Load SMPLX:        2.36s
  Step 2 - Align FPS:         18.05s
  Step 3 - Init Retarget:     1.64s
  Step 4 - Init Visualization: 0.00s
  Step 5 - Process Frames:    89.65s (avg: 0.103s/frame)
  Step 6 - Convert Arrays:    0.00s
  Step 7 - Forward Kinematics: 1.07s
  Step 8 - Save Data:         0.01s
Status: SUCCESS
==================================================

=== SUCCESS LOG - 2025-10-14 15:30:17 ===
Input file: /data/retarget/locomotion/raw/AMASS_SMPLXG/CMU/13/13_03_stageii.npz
Output file: ../robot/ik_based/pkl/006003.pkl
Robot type: unitree_g1
Processing time: 115.38 seconds

STEP-BY-STEP TIMING:
  Step 1 - Load SMPLX:        2.64s
  Step 2 - Align FPS:         18.31s
  Step 3 - Init Retarget:     0.38s
  Step 4 - Init Visualization: 0.00s
  Step 5 - Process Frames:    93.34s (avg: 0.101s/frame)
  Step 6 - Convert Arrays:    0.01s
  Step 7 - Forward Kinematics: 0.46s
  Step 8 - Save Data:         0.01s
Status: SUCCESS
==================================================

=== SUCCESS LOG - 2025-10-14 15:32:05 ===
Input file: /data/retarget/locomotion/raw/AMASS_SMPLXG/CMU/13/13_04_stageii.npz
Output file: ../robot/ik_based/pkl/006004.pkl
Robot type: unitree_g1
Processing time: 149.93 seconds

STEP-BY-STEP TIMING:
  Step 1 - Load SMPLX:        5.45s
  Step 2 - Align FPS:         13.99s
  Step 3 - Init Retarget:     0.43s
  Step 4 - Init Visualization: 0.00s
  Step 5 - Process Frames:    128.83s (avg: 0.108s/frame)
  Step 6 - Convert Arrays:    0.00s
  Step 7 - Forward Kinematics: 0.76s
  Step 8 - Save Data:         0.01s
Status: SUCCESS
==================================================

=== SUCCESS LOG - 2025-10-14 15:32:34 ===
Input file: /data/retarget/locomotion/raw/AMASS_SMPLXG/CMU/13/13_05_stageii.npz
Output file: ../robot/ik_based/pkl/006005.pkl
Robot type: unitree_g1
Processing time: 138.86 seconds

STEP-BY-STEP TIMING:
  Step 1 - Load SMPLX:        4.72s
  Step 2 - Align FPS:         15.12s
  Step 3 - Init Retarget:     0.32s
  Step 4 - Init Visualization: 0.00s
  Step 5 - Process Frames:    117.74s (avg: 0.107s/frame)
  Step 6 - Convert Arrays:    0.01s
  Step 7 - Forward Kinematics: 0.49s
  Step 8 - Save Data:         0.01s
Status: SUCCESS
==================================================

=== SUCCESS LOG - 2025-10-14 15:32:42 ===
Input file: /data/retarget/locomotion/raw/AMASS_SMPLXG/CMU/13/13_06_stageii.npz
Output file: ../robot/ik_based/pkl/006006.pkl
Robot type: unitree_g1
Processing time: 143.71 seconds

STEP-BY-STEP TIMING:
  Step 1 - Load SMPLX:        4.22s
  Step 2 - Align FPS:         15.84s
  Step 3 - Init Retarget:     0.33s
  Step 4 - Init Visualization: 0.00s
  Step 5 - Process Frames:    121.30s (avg: 0.110s/frame)
  Step 6 - Convert Arrays:    0.00s
  Step 7 - Forward Kinematics: 1.01s
  Step 8 - Save Data:         0.02s
Status: SUCCESS
==================================================

=== SUCCESS LOG - 2025-10-14 15:32:42 ===
Input file: /data/retarget/locomotion/raw/AMASS_SMPLXG/CMU/13/13_07_stageii.npz
Output file: ../robot/ik_based/pkl/006007.pkl
Robot type: unitree_g1
Processing time: 36.53 seconds

STEP-BY-STEP TIMING:
  Step 1 - Load SMPLX:        5.00s
  Step 2 - Align FPS:         3.73s
  Step 3 - Init Retarget:     0.41s
  Step 4 - Init Visualization: 0.00s
  Step 5 - Process Frames:    26.94s (avg: 0.074s/frame)
  Step 6 - Convert Arrays:    0.00s
  Step 7 - Forward Kinematics: 0.31s
  Step 8 - Save Data:         0.00s
Status: SUCCESS
==================================================

=== SUCCESS LOG - 2025-10-14 15:33:14 ===
Input file: /data/retarget/locomotion/raw/AMASS_SMPLXG/CMU/13/13_09_stageii.npz
Output file: ../robot/ik_based/pkl/006009.pkl
Robot type: unitree_g1
Processing time: 31.45 seconds

STEP-BY-STEP TIMING:
  Step 1 - Load SMPLX:        2.90s
  Step 2 - Align FPS:         3.87s
  Step 3 - Init Retarget:     0.50s
  Step 4 - Init Visualization: 0.00s
  Step 5 - Process Frames:    23.50s (avg: 0.085s/frame)
  Step 6 - Convert Arrays:    0.00s
  Step 7 - Forward Kinematics: 0.41s
  Step 8 - Save Data:         0.00s
Status: SUCCESS
==================================================

=== SUCCESS LOG - 2025-10-14 15:33:14 ===
Input file: /data/retarget/locomotion/raw/AMASS_SMPLXG/CMU/13/13_08_stageii.npz
Output file: ../robot/ik_based/pkl/006008.pkl
Robot type: unitree_g1
Processing time: 39.56 seconds

STEP-BY-STEP TIMING:
  Step 1 - Load SMPLX:        5.19s
  Step 2 - Align FPS:         3.51s
  Step 3 - Init Retarget:     0.31s
  Step 4 - Init Visualization: 0.00s
  Step 5 - Process Frames:    29.97s (avg: 0.075s/frame)
  Step 6 - Convert Arrays:    0.00s
  Step 7 - Forward Kinematics: 0.27s
  Step 8 - Save Data:         0.00s
Status: SUCCESS
==================================================

=== SUCCESS LOG - 2025-10-14 15:33:33 ===
Input file: /data/retarget/locomotion/raw/AMASS_SMPLXG/CMU/13/13_11_stageii.npz
Output file: ../robot/ik_based/pkl/006011.pkl
Robot type: unitree_g1
Processing time: 18.92 seconds

STEP-BY-STEP TIMING:
  Step 1 - Load SMPLX:        3.22s
  Step 2 - Align FPS:         1.07s
  Step 3 - Init Retarget:     0.55s
  Step 4 - Init Visualization: 0.00s
  Step 5 - Process Frames:    13.07s (avg: 0.127s/frame)
  Step 6 - Convert Arrays:    0.00s
  Step 7 - Forward Kinematics: 0.51s
  Step 8 - Save Data:         0.01s
Status: SUCCESS
==================================================

=== SUCCESS LOG - 2025-10-14 15:33:53 ===
Input file: /data/retarget/locomotion/raw/AMASS_SMPLXG/CMU/13/13_13_stageii.npz
Output file: ../robot/ik_based/pkl/006013.pkl
Robot type: unitree_g1
Processing time: 19.09 seconds

STEP-BY-STEP TIMING:
  Step 1 - Load SMPLX:        4.25s
  Step 2 - Align FPS:         1.69s
  Step 3 - Init Retarget:     0.38s
  Step 4 - Init Visualization: 0.00s
  Step 5 - Process Frames:    11.87s (avg: 0.109s/frame)
  Step 6 - Convert Arrays:    0.00s
  Step 7 - Forward Kinematics: 0.63s
  Step 8 - Save Data:         0.00s
Status: SUCCESS
==================================================

=== SUCCESS LOG - 2025-10-14 15:33:56 ===
Input file: /data/retarget/locomotion/raw/AMASS_SMPLXG/CMU/13/13_10_stageii.npz
Output file: ../robot/ik_based/pkl/006010.pkl
Robot type: unitree_g1
Processing time: 72.56 seconds

STEP-BY-STEP TIMING:
  Step 1 - Load SMPLX:        2.99s
  Step 2 - Align FPS:         9.04s
  Step 3 - Init Retarget:     0.44s
  Step 4 - Init Visualization: 0.00s
  Step 5 - Process Frames:    59.63s (avg: 0.100s/frame)
  Step 6 - Convert Arrays:    0.00s
  Step 7 - Forward Kinematics: 0.22s
  Step 8 - Save Data:         0.01s
Status: SUCCESS
==================================================

=== SUCCESS LOG - 2025-10-14 15:35:01 ===
Input file: /data/retarget/locomotion/raw/AMASS_SMPLXG/CMU/13/13_12_stageii.npz
Output file: ../robot/ik_based/pkl/006012.pkl
Robot type: unitree_g1
Processing time: 106.84 seconds

STEP-BY-STEP TIMING:
  Step 1 - Load SMPLX:        4.22s
  Step 2 - Align FPS:         10.74s
  Step 3 - Init Retarget:     0.45s
  Step 4 - Init Visualization: 0.00s
  Step 5 - Process Frames:    90.60s (avg: 0.106s/frame)
  Step 6 - Convert Arrays:    0.00s
  Step 7 - Forward Kinematics: 0.43s
  Step 8 - Save Data:         0.01s
Status: SUCCESS
==================================================

=== SUCCESS LOG - 2025-10-14 15:35:21 ===
Input file: /data/retarget/locomotion/raw/AMASS_SMPLXG/CMU/13/13_14_stageii.npz
Output file: ../robot/ik_based/pkl/006014.pkl
Robot type: unitree_g1
Processing time: 87.60 seconds

STEP-BY-STEP TIMING:
  Step 1 - Load SMPLX:        4.50s
  Step 2 - Align FPS:         7.94s
  Step 3 - Init Retarget:     0.71s
  Step 4 - Init Visualization: 0.00s
  Step 5 - Process Frames:    73.82s (avg: 0.122s/frame)
  Step 6 - Convert Arrays:    0.00s
  Step 7 - Forward Kinematics: 0.30s
  Step 8 - Save Data:         0.01s
Status: SUCCESS
==================================================

=== SUCCESS LOG - 2025-10-14 15:35:25 ===
Input file: /data/retarget/locomotion/raw/AMASS_SMPLXG/CMU/13/13_15_stageii.npz
Output file: ../robot/ik_based/pkl/006015.pkl
Robot type: unitree_g1
Processing time: 88.26 seconds

STEP-BY-STEP TIMING:
  Step 1 - Load SMPLX:        5.54s
  Step 2 - Align FPS:         8.04s
  Step 3 - Init Retarget:     0.34s
  Step 4 - Init Visualization: 0.00s
  Step 5 - Process Frames:    74.00s (avg: 0.124s/frame)
  Step 6 - Convert Arrays:    0.00s
  Step 7 - Forward Kinematics: 0.17s
  Step 8 - Save Data:         0.01s
Status: SUCCESS
==================================================

=== SUCCESS LOG - 2025-10-14 15:36:26 ===
Input file: /data/retarget/locomotion/raw/AMASS_SMPLXG/CMU/13/13_16_stageii.npz
Output file: ../robot/ik_based/pkl/006016.pkl
Robot type: unitree_g1
Processing time: 84.26 seconds

STEP-BY-STEP TIMING:
  Step 1 - Load SMPLX:        5.03s
  Step 2 - Align FPS:         7.78s
  Step 3 - Init Retarget:     0.41s
  Step 4 - Init Visualization: 0.00s
  Step 5 - Process Frames:    70.19s (avg: 0.124s/frame)
  Step 6 - Convert Arrays:    0.00s
  Step 7 - Forward Kinematics: 0.41s
  Step 8 - Save Data:         0.01s
Status: SUCCESS
==================================================

=== SUCCESS LOG - 2025-10-14 15:36:44 ===
Input file: /data/retarget/locomotion/raw/AMASS_SMPLXG/CMU/13/13_19_stageii.npz
Output file: ../robot/ik_based/pkl/006019.pkl
Robot type: unitree_g1
Processing time: 17.34 seconds

STEP-BY-STEP TIMING:
  Step 1 - Load SMPLX:        4.45s
  Step 2 - Align FPS:         1.14s
  Step 3 - Init Retarget:     0.41s
  Step 4 - Init Visualization: 0.00s
  Step 5 - Process Frames:    10.28s (avg: 0.097s/frame)
  Step 6 - Convert Arrays:    0.00s
  Step 7 - Forward Kinematics: 0.51s
  Step 8 - Save Data:         0.01s
Status: SUCCESS
==================================================

=== SUCCESS LOG - 2025-10-14 15:37:19 ===
Input file: /data/retarget/locomotion/raw/AMASS_SMPLXG/CMU/13/13_18_stageii.npz
Output file: ../robot/ik_based/pkl/006018.pkl
Robot type: unitree_g1
Processing time: 113.71 seconds

STEP-BY-STEP TIMING:
  Step 1 - Load SMPLX:        3.31s
  Step 2 - Align FPS:         9.97s
  Step 3 - Init Retarget:     0.32s
  Step 4 - Init Visualization: 0.00s
  Step 5 - Process Frames:    98.94s (avg: 0.132s/frame)
  Step 6 - Convert Arrays:    0.00s
  Step 7 - Forward Kinematics: 0.68s
  Step 8 - Save Data:         0.01s
Status: SUCCESS
==================================================

=== SUCCESS LOG - 2025-10-14 15:38:22 ===
Input file: /data/retarget/locomotion/raw/AMASS_SMPLXG/CMU/13/13_17_stageii.npz
Output file: ../robot/ik_based/pkl/006017.pkl
Robot type: unitree_g1
Processing time: 180.42 seconds

STEP-BY-STEP TIMING:
  Step 1 - Load SMPLX:        5.54s
  Step 2 - Align FPS:         14.33s
  Step 3 - Init Retarget:     0.33s
  Step 4 - Init Visualization: 0.00s
  Step 5 - Process Frames:    159.48s (avg: 0.132s/frame)
  Step 6 - Convert Arrays:    0.00s
  Step 7 - Forward Kinematics: 0.32s
  Step 8 - Save Data:         0.01s
Status: SUCCESS
==================================================

=== SUCCESS LOG - 2025-10-14 15:39:28 ===
Input file: /data/retarget/locomotion/raw/AMASS_SMPLXG/CMU/13/13_20_stageii.npz
Output file: ../robot/ik_based/pkl/006020.pkl
Robot type: unitree_g1
Processing time: 163.34 seconds

STEP-BY-STEP TIMING:
  Step 1 - Load SMPLX:        6.04s
  Step 2 - Align FPS:         15.06s
  Step 3 - Init Retarget:     0.44s
  Step 4 - Init Visualization: 0.00s
  Step 5 - Process Frames:    140.75s (avg: 0.098s/frame)
  Step 6 - Convert Arrays:    0.01s
  Step 7 - Forward Kinematics: 0.53s
  Step 8 - Save Data:         0.01s
Status: SUCCESS
==================================================

=== SUCCESS LOG - 2025-10-14 15:39:57 ===
Input file: /data/retarget/locomotion/raw/AMASS_SMPLXG/CMU/13/13_21_stageii.npz
Output file: ../robot/ik_based/pkl/006021.pkl
Robot type: unitree_g1
Processing time: 157.53 seconds

STEP-BY-STEP TIMING:
  Step 1 - Load SMPLX:        5.69s
  Step 2 - Align FPS:         16.34s
  Step 3 - Init Retarget:     0.45s
  Step 4 - Init Visualization: 0.01s
  Step 5 - Process Frames:    133.43s (avg: 0.098s/frame)
  Step 6 - Convert Arrays:    0.00s
  Step 7 - Forward Kinematics: 0.87s
  Step 8 - Save Data:         0.01s
Status: SUCCESS
==================================================

=== SUCCESS LOG - 2025-10-14 15:40:41 ===
Input file: /data/retarget/locomotion/raw/AMASS_SMPLXG/CMU/13/13_22_stageii.npz
Output file: ../robot/ik_based/pkl/006022.pkl
Robot type: unitree_g1
Processing time: 138.29 seconds

STEP-BY-STEP TIMING:
  Step 1 - Load SMPLX:        5.37s
  Step 2 - Align FPS:         14.19s
  Step 3 - Init Retarget:     0.40s
  Step 4 - Init Visualization: 0.00s
  Step 5 - Process Frames:    117.12s (avg: 0.094s/frame)
  Step 6 - Convert Arrays:    0.01s
  Step 7 - Forward Kinematics: 0.62s
  Step 8 - Save Data:         0.01s
Status: SUCCESS
==================================================

=== SUCCESS LOG - 2025-10-14 15:41:17 ===
Input file: /data/retarget/locomotion/raw/AMASS_SMPLXG/CMU/13/13_23_stageii.npz
Output file: ../robot/ik_based/pkl/006023.pkl
Robot type: unitree_g1
Processing time: 107.89 seconds

STEP-BY-STEP TIMING:
  Step 1 - Load SMPLX:        5.74s
  Step 2 - Align FPS:         11.98s
  Step 3 - Init Retarget:     0.40s
  Step 4 - Init Visualization: 0.00s
  Step 5 - Process Frames:    88.32s (avg: 0.088s/frame)
  Step 6 - Convert Arrays:    0.00s
  Step 7 - Forward Kinematics: 0.63s
  Step 8 - Save Data:         0.01s
Status: SUCCESS
==================================================

=== SUCCESS LOG - 2025-10-14 15:41:54 ===
Input file: /data/retarget/locomotion/raw/AMASS_SMPLXG/CMU/13/13_24_stageii.npz
Output file: ../robot/ik_based/pkl/006024.pkl
Robot type: unitree_g1
Processing time: 115.93 seconds

STEP-BY-STEP TIMING:
  Step 1 - Load SMPLX:        5.61s
  Step 2 - Align FPS:         12.67s
  Step 3 - Init Retarget:     0.42s
  Step 4 - Init Visualization: 0.00s
  Step 5 - Process Frames:    96.20s (avg: 0.095s/frame)
  Step 6 - Convert Arrays:    0.00s
  Step 7 - Forward Kinematics: 0.62s
  Step 8 - Save Data:         0.01s
Status: SUCCESS
==================================================

=== SUCCESS LOG - 2025-10-14 15:42:32 ===
Input file: /data/retarget/locomotion/raw/AMASS_SMPLXG/CMU/13/13_25_stageii.npz
Output file: ../robot/ik_based/pkl/006025.pkl
Robot type: unitree_g1
Processing time: 110.11 seconds

STEP-BY-STEP TIMING:
  Step 1 - Load SMPLX:        5.69s
  Step 2 - Align FPS:         11.07s
  Step 3 - Init Retarget:     0.33s
  Step 4 - Init Visualization: 0.00s
  Step 5 - Process Frames:    92.08s (avg: 0.092s/frame)
  Step 6 - Convert Arrays:    0.01s
  Step 7 - Forward Kinematics: 0.51s
  Step 8 - Save Data:         0.02s
Status: SUCCESS
==================================================

=== SUCCESS LOG - 2025-10-14 15:43:08 ===
Input file: /data/retarget/locomotion/raw/AMASS_SMPLXG/CMU/13/13_26_stageii.npz
Output file: ../robot/ik_based/pkl/006026.pkl
Robot type: unitree_g1
Processing time: 110.43 seconds

STEP-BY-STEP TIMING:
  Step 1 - Load SMPLX:        5.19s
  Step 2 - Align FPS:         8.78s
  Step 3 - Init Retarget:     0.36s
  Step 4 - Init Visualization: 0.00s
  Step 5 - Process Frames:    95.27s (avg: 0.126s/frame)
  Step 6 - Convert Arrays:    0.01s
  Step 7 - Forward Kinematics: 0.42s
  Step 8 - Save Data:         0.01s
Status: SUCCESS
==================================================

=== SUCCESS LOG - 2025-10-14 15:44:26 ===
Input file: /data/retarget/locomotion/raw/AMASS_SMPLXG/CMU/13/13_27_stageii.npz
Output file: ../robot/ik_based/pkl/006027.pkl
Robot type: unitree_g1
Processing time: 151.64 seconds

STEP-BY-STEP TIMING:
  Step 1 - Load SMPLX:        5.62s
  Step 2 - Align FPS:         11.35s
  Step 3 - Init Retarget:     0.32s
  Step 4 - Init Visualization: 0.00s
  Step 5 - Process Frames:    133.72s (avg: 0.128s/frame)
  Step 6 - Convert Arrays:    0.00s
  Step 7 - Forward Kinematics: 0.32s
  Step 8 - Save Data:         0.01s
Status: SUCCESS
==================================================

=== SUCCESS LOG - 2025-10-14 15:45:05 ===
Input file: /data/retarget/locomotion/raw/AMASS_SMPLXG/CMU/13/13_28_stageii.npz
Output file: ../robot/ik_based/pkl/006028.pkl
Robot type: unitree_g1
Processing time: 152.48 seconds

STEP-BY-STEP TIMING:
  Step 1 - Load SMPLX:        5.57s
  Step 2 - Align FPS:         11.90s
  Step 3 - Init Retarget:     0.31s
  Step 4 - Init Visualization: 0.00s
  Step 5 - Process Frames:    133.78s (avg: 0.130s/frame)
  Step 6 - Convert Arrays:    0.00s
  Step 7 - Forward Kinematics: 0.47s
  Step 8 - Save Data:         0.01s
Status: SUCCESS
==================================================

=== SUCCESS LOG - 2025-10-14 15:45:48 ===
Input file: /data/retarget/locomotion/raw/AMASS_SMPLXG/CMU/13/13_30_stageii.npz
Output file: ../robot/ik_based/pkl/006030.pkl
Robot type: unitree_g1
Processing time: 80.49 seconds

STEP-BY-STEP TIMING:
  Step 1 - Load SMPLX:        5.03s
  Step 2 - Align FPS:         7.24s
  Step 3 - Init Retarget:     0.35s
  Step 4 - Init Visualization: 0.00s
  Step 5 - Process Frames:    67.09s (avg: 0.109s/frame)
  Step 6 - Convert Arrays:    0.00s
  Step 7 - Forward Kinematics: 0.39s
  Step 8 - Save Data:         0.01s
Status: SUCCESS
==================================================

=== SUCCESS LOG - 2025-10-14 15:45:48 ===
Input file: /data/retarget/locomotion/raw/AMASS_SMPLXG/CMU/13/13_29_stageii.npz
Output file: ../robot/ik_based/pkl/006029.pkl
Robot type: unitree_g1
Processing time: 159.38 seconds

STEP-BY-STEP TIMING:
  Step 1 - Load SMPLX:        5.30s
  Step 2 - Align FPS:         11.46s
  Step 3 - Init Retarget:     0.34s
  Step 4 - Init Visualization: 0.00s
  Step 5 - Process Frames:    141.79s (avg: 0.124s/frame)
  Step 6 - Convert Arrays:    0.00s
  Step 7 - Forward Kinematics: 0.31s
  Step 8 - Save Data:         0.01s
Status: SUCCESS
==================================================

=== SUCCESS LOG - 2025-10-14 15:46:02 ===
Input file: /data/retarget/locomotion/raw/AMASS_SMPLXG/CMU/13/13_32_stageii.npz
Output file: ../robot/ik_based/pkl/006032.pkl
Robot type: unitree_g1
Processing time: 14.11 seconds

STEP-BY-STEP TIMING:
  Step 1 - Load SMPLX:        2.96s
  Step 2 - Align FPS:         0.74s
  Step 3 - Init Retarget:     0.23s
  Step 4 - Init Visualization: 0.00s
  Step 5 - Process Frames:    9.48s (avg: 0.113s/frame)
  Step 6 - Convert Arrays:    0.00s
  Step 7 - Forward Kinematics: 0.36s
  Step 8 - Save Data:         0.00s
Status: SUCCESS
==================================================

=== SUCCESS LOG - 2025-10-14 15:46:36 ===
Input file: /data/retarget/locomotion/raw/AMASS_SMPLXG/CMU/13/13_33_stageii.npz
Output file: ../robot/ik_based/pkl/006033.pkl
Robot type: unitree_g1
Processing time: 46.94 seconds

STEP-BY-STEP TIMING:
  Step 1 - Load SMPLX:        3.98s
  Step 2 - Align FPS:         4.15s
  Step 3 - Init Retarget:     0.39s
  Step 4 - Init Visualization: 0.00s
  Step 5 - Process Frames:    37.44s (avg: 0.100s/frame)
  Step 6 - Convert Arrays:    0.00s
  Step 7 - Forward Kinematics: 0.51s
  Step 8 - Save Data:         0.01s
Status: SUCCESS
==================================================

=== SUCCESS LOG - 2025-10-14 15:46:39 ===
Input file: /data/retarget/locomotion/raw/AMASS_SMPLXG/CMU/13/13_31_stageii.npz
Output file: ../robot/ik_based/pkl/006031.pkl
Robot type: unitree_g1
Processing time: 92.33 seconds

STEP-BY-STEP TIMING:
  Step 1 - Load SMPLX:        5.33s
  Step 2 - Align FPS:         8.32s
  Step 3 - Init Retarget:     0.33s
  Step 4 - Init Visualization: 0.00s
  Step 5 - Process Frames:    77.98s (avg: 0.103s/frame)
  Step 6 - Convert Arrays:    0.00s
  Step 7 - Forward Kinematics: 0.18s
  Step 8 - Save Data:         0.00s
Status: SUCCESS
==================================================

=== SUCCESS LOG - 2025-10-14 15:46:53 ===
Input file: /data/retarget/locomotion/raw/AMASS_SMPLXG/CMU/13/13_34_stageii.npz
Output file: ../robot/ik_based/pkl/006034.pkl
Robot type: unitree_g1
Processing time: 50.69 seconds

STEP-BY-STEP TIMING:
  Step 1 - Load SMPLX:        4.71s
  Step 2 - Align FPS:         4.23s
  Step 3 - Init Retarget:     0.31s
  Step 4 - Init Visualization: 0.00s
  Step 5 - Process Frames:    40.47s (avg: 0.114s/frame)
  Step 6 - Convert Arrays:    0.00s
  Step 7 - Forward Kinematics: 0.47s
  Step 8 - Save Data:         0.02s
Status: SUCCESS
==================================================

=== SUCCESS LOG - 2025-10-14 15:47:09 ===
Input file: /data/retarget/locomotion/raw/AMASS_SMPLXG/CMU/13/13_35_stageii.npz
Output file: ../robot/ik_based/pkl/006035.pkl
Robot type: unitree_g1
Processing time: 32.78 seconds

STEP-BY-STEP TIMING:
  Step 1 - Load SMPLX:        3.52s
  Step 2 - Align FPS:         2.19s
  Step 3 - Init Retarget:     0.24s
  Step 4 - Init Visualization: 0.00s
  Step 5 - Process Frames:    25.99s (avg: 0.087s/frame)
  Step 6 - Convert Arrays:    0.00s
  Step 7 - Forward Kinematics: 0.40s
  Step 8 - Save Data:         0.01s
Status: SUCCESS
==================================================

=== SUCCESS LOG - 2025-10-14 15:47:18 ===
Input file: /data/retarget/locomotion/raw/AMASS_SMPLXG/CMU/13/13_36_stageii.npz
Output file: ../robot/ik_based/pkl/006036.pkl
Robot type: unitree_g1
Processing time: 38.71 seconds

STEP-BY-STEP TIMING:
  Step 1 - Load SMPLX:        5.24s
  Step 2 - Align FPS:         4.41s
  Step 3 - Init Retarget:     0.35s
  Step 4 - Init Visualization: 0.00s
  Step 5 - Process Frames:    27.73s (avg: 0.081s/frame)
  Step 6 - Convert Arrays:    0.00s
  Step 7 - Forward Kinematics: 0.28s
  Step 8 - Save Data:         0.00s
Status: SUCCESS
==================================================

=== SUCCESS LOG - 2025-10-14 15:47:34 ===
Input file: /data/retarget/locomotion/raw/AMASS_SMPLXG/CMU/13/13_39_stageii.npz
Output file: ../robot/ik_based/pkl/006039.pkl
Robot type: unitree_g1
Processing time: 15.62 seconds

STEP-BY-STEP TIMING:
  Step 1 - Load SMPLX:        4.90s
  Step 2 - Align FPS:         0.68s
  Step 3 - Init Retarget:     0.24s
  Step 4 - Init Visualization: 0.00s
  Step 5 - Process Frames:    8.97s (avg: 0.103s/frame)
  Step 6 - Convert Arrays:    0.00s
  Step 7 - Forward Kinematics: 0.45s
  Step 8 - Save Data:         0.00s
Status: SUCCESS
==================================================

=== SUCCESS LOG - 2025-10-14 15:47:34 ===
Input file: /data/retarget/locomotion/raw/AMASS_SMPLXG/CMU/13/13_37_stageii.npz
Output file: ../robot/ik_based/pkl/006037.pkl
Robot type: unitree_g1
Processing time: 40.64 seconds

STEP-BY-STEP TIMING:
  Step 1 - Load SMPLX:        4.67s
  Step 2 - Align FPS:         3.96s
  Step 3 - Init Retarget:     0.30s
  Step 4 - Init Visualization: 0.00s
  Step 5 - Process Frames:    31.26s (avg: 0.085s/frame)
  Step 6 - Convert Arrays:    0.00s
  Step 7 - Forward Kinematics: 0.25s
  Step 8 - Save Data:         0.01s
Status: SUCCESS
==================================================

=== SUCCESS LOG - 2025-10-14 15:47:38 ===
Input file: /data/retarget/locomotion/raw/AMASS_SMPLXG/CMU/13/13_38_stageii.npz
Output file: ../robot/ik_based/pkl/006038.pkl
Robot type: unitree_g1
Processing time: 28.05 seconds

STEP-BY-STEP TIMING:
  Step 1 - Load SMPLX:        4.81s
  Step 2 - Align FPS:         3.59s
  Step 3 - Init Retarget:     0.25s
  Step 4 - Init Visualization: 0.00s
  Step 5 - Process Frames:    19.33s (avg: 0.062s/frame)
  Step 6 - Convert Arrays:    0.00s
  Step 7 - Forward Kinematics: 0.02s
  Step 8 - Save Data:         0.00s
Status: SUCCESS
==================================================

=== SUCCESS LOG - 2025-10-14 15:47:44 ===
Input file: /data/retarget/locomotion/raw/AMASS_SMPLXG/CMU/13/13_40_stageii.npz
Output file: ../robot/ik_based/pkl/006040.pkl
Robot type: unitree_g1
Processing time: 10.17 seconds

STEP-BY-STEP TIMING:
  Step 1 - Load SMPLX:        2.45s
  Step 2 - Align FPS:         0.73s
  Step 3 - Init Retarget:     0.61s
  Step 4 - Init Visualization: 0.00s
  Step 5 - Process Frames:    5.56s (avg: 0.070s/frame)
  Step 6 - Convert Arrays:    0.00s
  Step 7 - Forward Kinematics: 0.38s
  Step 8 - Save Data:         0.01s
Status: SUCCESS
==================================================

=== SUCCESS LOG - 2025-10-14 15:47:47 ===
Input file: /data/retarget/locomotion/raw/AMASS_SMPLXG/CMU/13/13_41_stageii.npz
Output file: ../robot/ik_based/pkl/006041.pkl
Robot type: unitree_g1
Processing time: 11.85 seconds

STEP-BY-STEP TIMING:
  Step 1 - Load SMPLX:        3.06s
  Step 2 - Align FPS:         0.74s
  Step 3 - Init Retarget:     0.22s
  Step 4 - Init Visualization: 0.00s
  Step 5 - Process Frames:    7.48s (avg: 0.081s/frame)
  Step 6 - Convert Arrays:    0.00s
  Step 7 - Forward Kinematics: 0.17s
  Step 8 - Save Data:         0.01s
Status: SUCCESS
==================================================

=== ERROR LOG - 2025-10-14 15:47:48 ===
Input file: /data/retarget/locomotion/raw/AMASS_SMPLXG/CMU/13/male_stagei.npz
Output file: ../robot/ik_based/pkl/006043.pkl
Robot type: unitree_g1
Processing time: 2.90 seconds
Error message: 'pose_body is not a file in the archive'
Error type: KeyError
==================================================

=== SUCCESS LOG - 2025-10-14 15:47:48 ===
Input file: /data/retarget/locomotion/raw/AMASS_SMPLXG/CMU/13/13_42_stageii.npz
Output file: ../robot/ik_based/pkl/006042.pkl
Robot type: unitree_g1
Processing time: 10.58 seconds

STEP-BY-STEP TIMING:
  Step 1 - Load SMPLX:        4.42s
  Step 2 - Align FPS:         0.70s
  Step 3 - Init Retarget:     0.33s
  Step 4 - Init Visualization: 0.00s
  Step 5 - Process Frames:    5.07s (avg: 0.051s/frame)
  Step 6 - Convert Arrays:    0.00s
  Step 7 - Forward Kinematics: 0.03s
  Step 8 - Save Data:         0.00s
Status: SUCCESS
==================================================

=== SUCCESS LOG - 2025-10-14 15:48:23 ===
Input file: /data/retarget/locomotion/raw/AMASS_SMPLXG/CMU/131/131_01_stageii.npz
Output file: ../robot/ik_based/pkl/006044.pkl
Robot type: unitree_g1
Processing time: 36.04 seconds

STEP-BY-STEP TIMING:
  Step 1 - Load SMPLX:        2.22s
  Step 2 - Align FPS:         2.72s
  Step 3 - Init Retarget:     0.49s
  Step 4 - Init Visualization: 0.00s
  Step 5 - Process Frames:    29.66s (avg: 0.120s/frame)
  Step 6 - Convert Arrays:    0.00s
  Step 7 - Forward Kinematics: 0.46s
  Step 8 - Save Data:         0.01s
Status: SUCCESS
==================================================

=== SUCCESS LOG - 2025-10-14 15:48:24 ===
Input file: /data/retarget/locomotion/raw/AMASS_SMPLXG/CMU/131/131_02_stageii.npz
Output file: ../robot/ik_based/pkl/006045.pkl
Robot type: unitree_g1
Processing time: 36.46 seconds

STEP-BY-STEP TIMING:
  Step 1 - Load SMPLX:        1.94s
  Step 2 - Align FPS:         4.99s
  Step 3 - Init Retarget:     0.64s
  Step 4 - Init Visualization: 0.00s
  Step 5 - Process Frames:    28.42s (avg: 0.091s/frame)
  Step 6 - Convert Arrays:    0.00s
  Step 7 - Forward Kinematics: 0.24s
  Step 8 - Save Data:         0.01s
Status: SUCCESS
==================================================

=== SUCCESS LOG - 2025-10-14 15:48:26 ===
Input file: /data/retarget/locomotion/raw/AMASS_SMPLXG/CMU/131/131_03_stageii.npz
Output file: ../robot/ik_based/pkl/006046.pkl
Robot type: unitree_g1
Processing time: 37.74 seconds

STEP-BY-STEP TIMING:
  Step 1 - Load SMPLX:        2.55s
  Step 2 - Align FPS:         4.05s
  Step 3 - Init Retarget:     0.26s
  Step 4 - Init Visualization: 0.00s
  Step 5 - Process Frames:    30.82s (avg: 0.112s/frame)
  Step 6 - Convert Arrays:    0.00s
  Step 7 - Forward Kinematics: 0.02s
  Step 8 - Save Data:         0.00s
Status: SUCCESS
==================================================

=== SUCCESS LOG - 2025-10-14 15:49:03 ===
Input file: /data/retarget/locomotion/raw/AMASS_SMPLXG/CMU/131/131_04_stageii.npz
Output file: ../robot/ik_based/pkl/006047.pkl
Robot type: unitree_g1
Processing time: 39.95 seconds

STEP-BY-STEP TIMING:
  Step 1 - Load SMPLX:        3.28s
  Step 2 - Align FPS:         2.98s
  Step 3 - Init Retarget:     0.58s
  Step 4 - Init Visualization: 0.00s
  Step 5 - Process Frames:    31.65s (avg: 0.117s/frame)
  Step 6 - Convert Arrays:    0.00s
  Step 7 - Forward Kinematics: 0.79s
  Step 8 - Save Data:         0.01s
Status: SUCCESS
==================================================

=== SUCCESS LOG - 2025-10-14 15:49:04 ===
Input file: /data/retarget/locomotion/raw/AMASS_SMPLXG/CMU/131/131_05_stageii.npz
Output file: ../robot/ik_based/pkl/006048.pkl
Robot type: unitree_g1
Processing time: 39.10 seconds

STEP-BY-STEP TIMING:
  Step 1 - Load SMPLX:        3.01s
  Step 2 - Align FPS:         2.56s
  Step 3 - Init Retarget:     0.23s
  Step 4 - Init Visualization: 0.00s
  Step 5 - Process Frames:    32.83s (avg: 0.104s/frame)
  Step 6 - Convert Arrays:    0.00s
  Step 7 - Forward Kinematics: 0.28s
  Step 8 - Save Data:         0.01s
Status: SUCCESS
==================================================

=== SUCCESS LOG - 2025-10-14 15:49:07 ===
Input file: /data/retarget/locomotion/raw/AMASS_SMPLXG/CMU/131/131_06_stageii.npz
Output file: ../robot/ik_based/pkl/006049.pkl
Robot type: unitree_g1
Processing time: 39.94 seconds

STEP-BY-STEP TIMING:
  Step 1 - Load SMPLX:        5.79s
  Step 2 - Align FPS:         3.48s
  Step 3 - Init Retarget:     0.27s
  Step 4 - Init Visualization: 0.00s
  Step 5 - Process Frames:    29.90s (avg: 0.101s/frame)
  Step 6 - Convert Arrays:    0.00s
  Step 7 - Forward Kinematics: 0.24s
  Step 8 - Save Data:         0.00s
Status: SUCCESS
==================================================

=== SUCCESS LOG - 2025-10-14 15:49:31 ===
Input file: /data/retarget/locomotion/raw/AMASS_SMPLXG/CMU/131/131_07_stageii.npz
Output file: ../robot/ik_based/pkl/006050.pkl
Robot type: unitree_g1
Processing time: 27.83 seconds

STEP-BY-STEP TIMING:
  Step 1 - Load SMPLX:        2.55s
  Step 2 - Align FPS:         1.94s
  Step 3 - Init Retarget:     0.26s
  Step 4 - Init Visualization: 0.00s
  Step 5 - Process Frames:    22.11s (avg: 0.129s/frame)
  Step 6 - Convert Arrays:    0.00s
  Step 7 - Forward Kinematics: 0.53s
  Step 8 - Save Data:         0.01s
Status: SUCCESS
==================================================

=== SUCCESS LOG - 2025-10-14 15:49:33 ===
Input file: /data/retarget/locomotion/raw/AMASS_SMPLXG/CMU/131/131_08_stageii.npz
Output file: ../robot/ik_based/pkl/006051.pkl
Robot type: unitree_g1
Processing time: 29.29 seconds

STEP-BY-STEP TIMING:
  Step 1 - Load SMPLX:        3.13s
  Step 2 - Align FPS:         1.82s
  Step 3 - Init Retarget:     0.25s
  Step 4 - Init Visualization: 0.00s
  Step 5 - Process Frames:    23.70s (avg: 0.121s/frame)
  Step 6 - Convert Arrays:    0.00s
  Step 7 - Forward Kinematics: 0.23s
  Step 8 - Save Data:         0.00s
Status: SUCCESS
==================================================

=== SUCCESS LOG - 2025-10-14 15:50:11 ===
Input file: /data/retarget/locomotion/raw/AMASS_SMPLXG/CMU/131/131_09_stageii.npz
Output file: ../robot/ik_based/pkl/006052.pkl
Robot type: unitree_g1
Processing time: 64.07 seconds

STEP-BY-STEP TIMING:
  Step 1 - Load SMPLX:        4.87s
  Step 2 - Align FPS:         7.47s
  Step 3 - Init Retarget:     0.36s
  Step 4 - Init Visualization: 0.00s
  Step 5 - Process Frames:    49.92s (avg: 0.087s/frame)
  Step 6 - Convert Arrays:    0.00s
  Step 7 - Forward Kinematics: 0.79s
  Step 8 - Save Data:         0.01s
Status: SUCCESS
==================================================

=== SUCCESS LOG - 2025-10-14 15:50:15 ===
Input file: /data/retarget/locomotion/raw/AMASS_SMPLXG/CMU/131/131_11_stageii.npz
Output file: ../robot/ik_based/pkl/006054.pkl
Robot type: unitree_g1
Processing time: 41.97 seconds

STEP-BY-STEP TIMING:
  Step 1 - Load SMPLX:        3.55s
  Step 2 - Align FPS:         4.98s
  Step 3 - Init Retarget:     0.27s
  Step 4 - Init Visualization: 0.00s
  Step 5 - Process Frames:    32.81s (avg: 0.112s/frame)
  Step 6 - Convert Arrays:    0.00s
  Step 7 - Forward Kinematics: 0.18s
  Step 8 - Save Data:         0.01s
Status: SUCCESS
==================================================

=== SUCCESS LOG - 2025-10-14 15:50:26 ===
Input file: /data/retarget/locomotion/raw/AMASS_SMPLXG/CMU/131/131_10_stageii.npz
Output file: ../robot/ik_based/pkl/006053.pkl
Robot type: unitree_g1
Processing time: 54.20 seconds

STEP-BY-STEP TIMING:
  Step 1 - Load SMPLX:        3.44s
  Step 2 - Align FPS:         5.49s
  Step 3 - Init Retarget:     0.25s
  Step 4 - Init Visualization: 0.00s
  Step 5 - Process Frames:    44.13s (avg: 0.099s/frame)
  Step 6 - Convert Arrays:    0.00s
  Step 7 - Forward Kinematics: 0.46s
  Step 8 - Save Data:         0.01s
Status: SUCCESS
==================================================

=== SUCCESS LOG - 2025-10-14 15:50:37 ===
Input file: /data/retarget/locomotion/raw/AMASS_SMPLXG/CMU/131/131_12_stageii.npz
Output file: ../robot/ik_based/pkl/006055.pkl
Robot type: unitree_g1
Processing time: 25.59 seconds

STEP-BY-STEP TIMING:
  Step 1 - Load SMPLX:        4.27s
  Step 2 - Align FPS:         1.85s
  Step 3 - Init Retarget:     0.25s
  Step 4 - Init Visualization: 0.00s
  Step 5 - Process Frames:    18.12s (avg: 0.095s/frame)
  Step 6 - Convert Arrays:    0.00s
  Step 7 - Forward Kinematics: 0.98s
  Step 8 - Save Data:         0.00s
Status: SUCCESS
==================================================

=== ERROR LOG - 2025-10-14 15:50:41 ===
Input file: /data/retarget/locomotion/raw/AMASS_SMPLXG/CMU/131/male_stagei.npz
Output file: ../robot/ik_based/pkl/006058.pkl
Robot type: unitree_g1
Processing time: 3.98 seconds
Error message: 'pose_body is not a file in the archive'
Error type: KeyError
==================================================

=== SUCCESS LOG - 2025-10-14 15:51:00 ===
Input file: /data/retarget/locomotion/raw/AMASS_SMPLXG/CMU/131/131_13_stageii.npz
Output file: ../robot/ik_based/pkl/006056.pkl
Robot type: unitree_g1
Processing time: 44.59 seconds

STEP-BY-STEP TIMING:
  Step 1 - Load SMPLX:        4.74s
  Step 2 - Align FPS:         3.62s
  Step 3 - Init Retarget:     0.30s
  Step 4 - Init Visualization: 0.00s
  Step 5 - Process Frames:    34.40s (avg: 0.105s/frame)
  Step 6 - Convert Arrays:    0.00s
  Step 7 - Forward Kinematics: 0.68s
  Step 8 - Save Data:         0.03s
Status: SUCCESS
==================================================

=== SUCCESS LOG - 2025-10-14 15:51:21 ===
Input file: /data/retarget/locomotion/raw/AMASS_SMPLXG/CMU/132/132_01_stageii.npz
Output file: ../robot/ik_based/pkl/006059.pkl
Robot type: unitree_g1
Processing time: 39.85 seconds

STEP-BY-STEP TIMING:
  Step 1 - Load SMPLX:        5.03s
  Step 2 - Align FPS:         3.71s
  Step 3 - Init Retarget:     0.31s
  Step 4 - Init Visualization: 0.00s
  Step 5 - Process Frames:    29.93s (avg: 0.085s/frame)
  Step 6 - Convert Arrays:    0.00s
  Step 7 - Forward Kinematics: 0.40s
  Step 8 - Save Data:         0.01s
Status: SUCCESS
==================================================

=== SUCCESS LOG - 2025-10-14 15:51:22 ===
Input file: /data/retarget/locomotion/raw/AMASS_SMPLXG/CMU/131/131_14_stageii.npz
Output file: ../robot/ik_based/pkl/006057.pkl
Robot type: unitree_g1
Processing time: 56.09 seconds

STEP-BY-STEP TIMING:
  Step 1 - Load SMPLX:        4.97s
  Step 2 - Align FPS:         5.61s
  Step 3 - Init Retarget:     0.33s
  Step 4 - Init Visualization: 0.00s
  Step 5 - Process Frames:    44.79s (avg: 0.093s/frame)
  Step 6 - Convert Arrays:    0.00s
  Step 7 - Forward Kinematics: 0.20s
  Step 8 - Save Data:         0.00s
Status: SUCCESS
==================================================

=== SUCCESS LOG - 2025-10-14 15:51:32 ===
Input file: /data/retarget/locomotion/raw/AMASS_SMPLXG/CMU/132/132_02_stageii.npz
Output file: ../robot/ik_based/pkl/006060.pkl
Robot type: unitree_g1
Processing time: 31.54 seconds

STEP-BY-STEP TIMING:
  Step 1 - Load SMPLX:        4.70s
  Step 2 - Align FPS:         3.44s
  Step 3 - Init Retarget:     0.31s
  Step 4 - Init Visualization: 0.00s
  Step 5 - Process Frames:    22.23s (avg: 0.078s/frame)
  Step 6 - Convert Arrays:    0.00s
  Step 7 - Forward Kinematics: 0.42s
  Step 8 - Save Data:         0.01s
Status: SUCCESS
==================================================

=== SUCCESS LOG - 2025-10-14 15:52:01 ===
Input file: /data/retarget/locomotion/raw/AMASS_SMPLXG/CMU/132/132_04_stageii.npz
Output file: ../robot/ik_based/pkl/006062.pkl
Robot type: unitree_g1
Processing time: 37.76 seconds

STEP-BY-STEP TIMING:
  Step 1 - Load SMPLX:        3.52s
  Step 2 - Align FPS:         3.62s
  Step 3 - Init Retarget:     0.30s
  Step 4 - Init Visualization: 0.00s
  Step 5 - Process Frames:    29.39s (avg: 0.087s/frame)
  Step 6 - Convert Arrays:    0.00s
  Step 7 - Forward Kinematics: 0.45s
  Step 8 - Save Data:         0.02s
Status: SUCCESS
==================================================

=== SUCCESS LOG - 2025-10-14 15:52:02 ===
Input file: /data/retarget/locomotion/raw/AMASS_SMPLXG/CMU/132/132_03_stageii.npz
Output file: ../robot/ik_based/pkl/006061.pkl
Robot type: unitree_g1
Processing time: 39.85 seconds

STEP-BY-STEP TIMING:
  Step 1 - Load SMPLX:        2.88s
  Step 2 - Align FPS:         4.64s
  Step 3 - Init Retarget:     0.72s
  Step 4 - Init Visualization: 0.00s
  Step 5 - Process Frames:    31.23s (avg: 0.085s/frame)
  Step 6 - Convert Arrays:    0.00s
  Step 7 - Forward Kinematics: 0.18s
  Step 8 - Save Data:         0.01s
Status: SUCCESS
==================================================

=== SUCCESS LOG - 2025-10-14 15:52:12 ===
Input file: /data/retarget/locomotion/raw/AMASS_SMPLXG/CMU/132/132_05_stageii.npz
Output file: ../robot/ik_based/pkl/006063.pkl
Robot type: unitree_g1
Processing time: 38.94 seconds

STEP-BY-STEP TIMING:
  Step 1 - Load SMPLX:        4.53s
  Step 2 - Align FPS:         4.34s
  Step 3 - Init Retarget:     0.31s
  Step 4 - Init Visualization: 0.00s
  Step 5 - Process Frames:    28.90s (avg: 0.088s/frame)
  Step 6 - Convert Arrays:    0.00s
  Step 7 - Forward Kinematics: 0.50s
  Step 8 - Save Data:         0.01s
Status: SUCCESS
==================================================

=== SUCCESS LOG - 2025-10-14 15:52:32 ===
Input file: /data/retarget/locomotion/raw/AMASS_SMPLXG/CMU/132/132_07_stageii.npz
Output file: ../robot/ik_based/pkl/006065.pkl
Robot type: unitree_g1
Processing time: 29.76 seconds

STEP-BY-STEP TIMING:
  Step 1 - Load SMPLX:        3.07s
  Step 2 - Align FPS:         3.99s
  Step 3 - Init Retarget:     0.29s
  Step 4 - Init Visualization: 0.00s
  Step 5 - Process Frames:    20.75s (avg: 0.092s/frame)
  Step 6 - Convert Arrays:    0.00s
  Step 7 - Forward Kinematics: 0.82s
  Step 8 - Save Data:         0.01s
Status: SUCCESS
==================================================

=== SUCCESS LOG - 2025-10-14 15:52:35 ===
Input file: /data/retarget/locomotion/raw/AMASS_SMPLXG/CMU/132/132_06_stageii.npz
Output file: ../robot/ik_based/pkl/006064.pkl
Robot type: unitree_g1
Processing time: 33.57 seconds

STEP-BY-STEP TIMING:
  Step 1 - Load SMPLX:        2.85s
  Step 2 - Align FPS:         4.37s
  Step 3 - Init Retarget:     0.49s
  Step 4 - Init Visualization: 0.00s
  Step 5 - Process Frames:    25.53s (avg: 0.077s/frame)
  Step 6 - Convert Arrays:    0.00s
  Step 7 - Forward Kinematics: 0.16s
  Step 8 - Save Data:         0.00s
Status: SUCCESS
==================================================

=== SUCCESS LOG - 2025-10-14 15:52:52 ===
Input file: /data/retarget/locomotion/raw/AMASS_SMPLXG/CMU/132/132_08_stageii.npz
Output file: ../robot/ik_based/pkl/006066.pkl
Robot type: unitree_g1
Processing time: 39.93 seconds

STEP-BY-STEP TIMING:
  Step 1 - Load SMPLX:        4.39s
  Step 2 - Align FPS:         5.39s
  Step 3 - Init Retarget:     0.29s
  Step 4 - Init Visualization: 0.00s
  Step 5 - Process Frames:    28.95s (avg: 0.080s/frame)
  Step 6 - Convert Arrays:    0.00s
  Step 7 - Forward Kinematics: 0.41s
  Step 8 - Save Data:         0.01s
Status: SUCCESS
==================================================

=== SUCCESS LOG - 2025-10-14 15:53:05 ===
Input file: /data/retarget/locomotion/raw/AMASS_SMPLXG/CMU/132/132_09_stageii.npz
Output file: ../robot/ik_based/pkl/006067.pkl
Robot type: unitree_g1
Processing time: 32.93 seconds

STEP-BY-STEP TIMING:
  Step 1 - Load SMPLX:        3.74s
  Step 2 - Align FPS:         2.35s
  Step 3 - Init Retarget:     0.28s
  Step 4 - Init Visualization: 0.00s
  Step 5 - Process Frames:    25.55s (avg: 0.087s/frame)
  Step 6 - Convert Arrays:    0.00s
  Step 7 - Forward Kinematics: 0.51s
  Step 8 - Save Data:         0.01s
Status: SUCCESS
==================================================

=== SUCCESS LOG - 2025-10-14 15:53:23 ===
Input file: /data/retarget/locomotion/raw/AMASS_SMPLXG/CMU/132/132_10_stageii.npz
Output file: ../robot/ik_based/pkl/006068.pkl
Robot type: unitree_g1
Processing time: 48.35 seconds

STEP-BY-STEP TIMING:
  Step 1 - Load SMPLX:        4.35s
  Step 2 - Align FPS:         6.27s
  Step 3 - Init Retarget:     0.36s
  Step 4 - Init Visualization: 0.00s
  Step 5 - Process Frames:    36.15s (avg: 0.089s/frame)
  Step 6 - Convert Arrays:    0.00s
  Step 7 - Forward Kinematics: 0.68s
  Step 8 - Save Data:         0.01s
Status: SUCCESS
==================================================

=== SUCCESS LOG - 2025-10-14 15:53:37 ===
Input file: /data/retarget/locomotion/raw/AMASS_SMPLXG/CMU/132/132_11_stageii.npz
Output file: ../robot/ik_based/pkl/006069.pkl
Robot type: unitree_g1
Processing time: 44.30 seconds

STEP-BY-STEP TIMING:
  Step 1 - Load SMPLX:        4.89s
  Step 2 - Align FPS:         4.00s
  Step 3 - Init Retarget:     0.30s
  Step 4 - Init Visualization: 0.00s
  Step 5 - Process Frames:    33.81s (avg: 0.084s/frame)
  Step 6 - Convert Arrays:    0.01s
  Step 7 - Forward Kinematics: 0.79s
  Step 8 - Save Data:         0.01s
Status: SUCCESS
==================================================

=== SUCCESS LOG - 2025-10-14 15:53:53 ===
Input file: /data/retarget/locomotion/raw/AMASS_SMPLXG/CMU/132/132_17_stageii.npz
Output file: ../robot/ik_based/pkl/006072.pkl
Robot type: unitree_g1
Processing time: 15.87 seconds

STEP-BY-STEP TIMING:
  Step 1 - Load SMPLX:        4.47s
  Step 2 - Align FPS:         3.28s
  Step 3 - Init Retarget:     0.32s
  Step 4 - Init Visualization: 0.00s
  Step 5 - Process Frames:    6.44s (avg: 0.096s/frame)
  Step 6 - Convert Arrays:    0.00s
  Step 7 - Forward Kinematics: 0.57s
  Step 8 - Save Data:         0.01s
Status: SUCCESS
==================================================

=== SUCCESS LOG - 2025-10-14 15:53:54 ===
Input file: /data/retarget/locomotion/raw/AMASS_SMPLXG/CMU/132/132_12_stageii.npz
Output file: ../robot/ik_based/pkl/006070.pkl
Robot type: unitree_g1
Processing time: 47.96 seconds

STEP-BY-STEP TIMING:
  Step 1 - Load SMPLX:        4.86s
  Step 2 - Align FPS:         4.81s
  Step 3 - Init Retarget:     0.29s
  Step 4 - Init Visualization: 0.00s
  Step 5 - Process Frames:    37.41s (avg: 0.095s/frame)
  Step 6 - Convert Arrays:    0.00s
  Step 7 - Forward Kinematics: 0.32s
  Step 8 - Save Data:         0.01s
Status: SUCCESS
==================================================

=== SUCCESS LOG - 2025-10-14 15:54:06 ===
Input file: /data/retarget/locomotion/raw/AMASS_SMPLXG/CMU/132/132_19_stageii.npz
Output file: ../robot/ik_based/pkl/006074.pkl
Robot type: unitree_g1
Processing time: 12.35 seconds

STEP-BY-STEP TIMING:
  Step 1 - Load SMPLX:        2.85s
  Step 2 - Align FPS:         0.81s
  Step 3 - Init Retarget:     0.28s
  Step 4 - Init Visualization: 0.00s
  Step 5 - Process Frames:    7.47s (avg: 0.112s/frame)
  Step 6 - Convert Arrays:    0.00s
  Step 7 - Forward Kinematics: 0.45s
  Step 8 - Save Data:         0.01s
Status: SUCCESS
==================================================

=== SUCCESS LOG - 2025-10-14 15:54:08 ===
Input file: /data/retarget/locomotion/raw/AMASS_SMPLXG/CMU/132/132_18_stageii.npz
Output file: ../robot/ik_based/pkl/006073.pkl
Robot type: unitree_g1
Processing time: 14.92 seconds

STEP-BY-STEP TIMING:
  Step 1 - Load SMPLX:        2.51s
  Step 2 - Align FPS:         0.78s
  Step 3 - Init Retarget:     0.29s
  Step 4 - Init Visualization: 0.00s
  Step 5 - Process Frames:    10.86s (avg: 0.102s/frame)
  Step 6 - Convert Arrays:    0.00s
  Step 7 - Forward Kinematics: 0.23s
  Step 8 - Save Data:         0.01s
Status: SUCCESS
==================================================

=== SUCCESS LOG - 2025-10-14 15:54:21 ===
Input file: /data/retarget/locomotion/raw/AMASS_SMPLXG/CMU/132/132_20_stageii.npz
Output file: ../robot/ik_based/pkl/006075.pkl
Robot type: unitree_g1
Processing time: 14.67 seconds

STEP-BY-STEP TIMING:
  Step 1 - Load SMPLX:        3.48s
  Step 2 - Align FPS:         0.77s
  Step 3 - Init Retarget:     0.28s
  Step 4 - Init Visualization: 0.00s
  Step 5 - Process Frames:    9.20s (avg: 0.108s/frame)
  Step 6 - Convert Arrays:    0.00s
  Step 7 - Forward Kinematics: 0.46s
  Step 8 - Save Data:         0.01s
Status: SUCCESS
==================================================

=== SUCCESS LOG - 2025-10-14 15:54:22 ===
Input file: /data/retarget/locomotion/raw/AMASS_SMPLXG/CMU/132/132_21_stageii.npz
Output file: ../robot/ik_based/pkl/006076.pkl
Robot type: unitree_g1
Processing time: 14.13 seconds

STEP-BY-STEP TIMING:
  Step 1 - Load SMPLX:        3.48s
  Step 2 - Align FPS:         1.12s
  Step 3 - Init Retarget:     0.29s
  Step 4 - Init Visualization: 0.00s
  Step 5 - Process Frames:    8.82s (avg: 0.100s/frame)
  Step 6 - Convert Arrays:    0.00s
  Step 7 - Forward Kinematics: 0.20s
  Step 8 - Save Data:         0.01s
Status: SUCCESS
==================================================

=== SUCCESS LOG - 2025-10-14 15:54:36 ===
Input file: /data/retarget/locomotion/raw/AMASS_SMPLXG/CMU/132/132_22_stageii.npz
Output file: ../robot/ik_based/pkl/006077.pkl
Robot type: unitree_g1
Processing time: 14.96 seconds

STEP-BY-STEP TIMING:
  Step 1 - Load SMPLX:        2.77s
  Step 2 - Align FPS:         0.84s
  Step 3 - Init Retarget:     0.23s
  Step 4 - Init Visualization: 0.00s
  Step 5 - Process Frames:    10.20s (avg: 0.111s/frame)
  Step 6 - Convert Arrays:    0.00s
  Step 7 - Forward Kinematics: 0.47s
  Step 8 - Save Data:         0.01s
Status: SUCCESS
==================================================

=== SUCCESS LOG - 2025-10-14 15:54:45 ===
Input file: /data/retarget/locomotion/raw/AMASS_SMPLXG/CMU/132/132_24_stageii.npz
Output file: ../robot/ik_based/pkl/006078.pkl
Robot type: unitree_g1
Processing time: 22.61 seconds

STEP-BY-STEP TIMING:
  Step 1 - Load SMPLX:        3.40s
  Step 2 - Align FPS:         2.52s
  Step 3 - Init Retarget:     0.31s
  Step 4 - Init Visualization: 0.00s
  Step 5 - Process Frames:    15.40s (avg: 0.084s/frame)
  Step 6 - Convert Arrays:    0.00s
  Step 7 - Forward Kinematics: 0.52s
  Step 8 - Save Data:         0.01s
Status: SUCCESS
==================================================

=== SUCCESS LOG - 2025-10-14 15:54:56 ===
Input file: /data/retarget/locomotion/raw/AMASS_SMPLXG/CMU/132/132_25_stageii.npz
Output file: ../robot/ik_based/pkl/006079.pkl
Robot type: unitree_g1
Processing time: 19.44 seconds

STEP-BY-STEP TIMING:
  Step 1 - Load SMPLX:        4.52s
  Step 2 - Align FPS:         1.53s
  Step 3 - Init Retarget:     0.27s
  Step 4 - Init Visualization: 0.00s
  Step 5 - Process Frames:    12.22s (avg: 0.088s/frame)
  Step 6 - Convert Arrays:    0.00s
  Step 7 - Forward Kinematics: 0.44s
  Step 8 - Save Data:         0.01s
Status: SUCCESS
==================================================

=== SUCCESS LOG - 2025-10-14 15:55:11 ===
Input file: /data/retarget/locomotion/raw/AMASS_SMPLXG/CMU/132/132_27_stageii.npz
Output file: ../robot/ik_based/pkl/006080.pkl
Robot type: unitree_g1
Processing time: 25.01 seconds

STEP-BY-STEP TIMING:
  Step 1 - Load SMPLX:        4.25s
  Step 2 - Align FPS:         2.74s
  Step 3 - Init Retarget:     0.27s
  Step 4 - Init Visualization: 0.00s
  Step 5 - Process Frames:    16.84s (avg: 0.093s/frame)
  Step 6 - Convert Arrays:    0.00s
  Step 7 - Forward Kinematics: 0.45s
  Step 8 - Save Data:         0.01s
Status: SUCCESS
==================================================

=== SUCCESS LOG - 2025-10-14 15:55:20 ===
Input file: /data/retarget/locomotion/raw/AMASS_SMPLXG/CMU/132/132_28_stageii.npz
Output file: ../robot/ik_based/pkl/006081.pkl
Robot type: unitree_g1
Processing time: 23.74 seconds

STEP-BY-STEP TIMING:
  Step 1 - Load SMPLX:        4.69s
  Step 2 - Align FPS:         2.89s
  Step 3 - Init Retarget:     0.26s
  Step 4 - Init Visualization: 0.00s
  Step 5 - Process Frames:    14.92s (avg: 0.083s/frame)
  Step 6 - Convert Arrays:    0.00s
  Step 7 - Forward Kinematics: 0.51s
  Step 8 - Save Data:         0.01s
Status: SUCCESS
==================================================

=== SUCCESS LOG - 2025-10-14 15:55:34 ===
Input file: /data/retarget/locomotion/raw/AMASS_SMPLXG/CMU/132/132_29_stageii.npz
Output file: ../robot/ik_based/pkl/006082.pkl
Robot type: unitree_g1
Processing time: 23.06 seconds

STEP-BY-STEP TIMING:
  Step 1 - Load SMPLX:        4.76s
  Step 2 - Align FPS:         2.63s
  Step 3 - Init Retarget:     0.30s
  Step 4 - Init Visualization: 0.00s
  Step 5 - Process Frames:    14.48s (avg: 0.075s/frame)
  Step 6 - Convert Arrays:    0.00s
  Step 7 - Forward Kinematics: 0.45s
  Step 8 - Save Data:         0.01s
Status: SUCCESS
==================================================

=== SUCCESS LOG - 2025-10-14 15:55:44 ===
Input file: /data/retarget/locomotion/raw/AMASS_SMPLXG/CMU/132/132_30_stageii.npz
Output file: ../robot/ik_based/pkl/006083.pkl
Robot type: unitree_g1
Processing time: 23.67 seconds

STEP-BY-STEP TIMING:
  Step 1 - Load SMPLX:        4.39s
  Step 2 - Align FPS:         2.31s
  Step 3 - Init Retarget:     0.32s
  Step 4 - Init Visualization: 0.00s
  Step 5 - Process Frames:    15.59s (avg: 0.080s/frame)
  Step 6 - Convert Arrays:    0.00s
  Step 7 - Forward Kinematics: 0.51s
  Step 8 - Save Data:         0.01s
Status: SUCCESS
==================================================

=== SUCCESS LOG - 2025-10-14 15:55:46 ===
Input file: /data/retarget/locomotion/raw/AMASS_SMPLXG/CMU/132/132_15_stageii.npz
Output file: ../robot/ik_based/pkl/006071.pkl
Robot type: unitree_g1
Processing time: 141.90 seconds

STEP-BY-STEP TIMING:
  Step 1 - Load SMPLX:        6.30s
  Step 2 - Align FPS:         14.69s
  Step 3 - Init Retarget:     0.23s
  Step 4 - Init Visualization: 0.00s
  Step 5 - Process Frames:    120.19s (avg: 0.073s/frame)
  Step 6 - Convert Arrays:    0.00s
  Step 7 - Forward Kinematics: 0.22s
  Step 8 - Save Data:         0.01s
Status: SUCCESS
==================================================

=== SUCCESS LOG - 2025-10-14 15:55:54 ===
Input file: /data/retarget/locomotion/raw/AMASS_SMPLXG/CMU/132/132_31_stageii.npz
Output file: ../robot/ik_based/pkl/006084.pkl
Robot type: unitree_g1
Processing time: 20.00 seconds

STEP-BY-STEP TIMING:
  Step 1 - Load SMPLX:        4.67s
  Step 2 - Align FPS:         2.35s
  Step 3 - Init Retarget:     0.29s
  Step 4 - Init Visualization: 0.00s
  Step 5 - Process Frames:    11.79s (avg: 0.066s/frame)
  Step 6 - Convert Arrays:    0.00s
  Step 7 - Forward Kinematics: 0.46s
  Step 8 - Save Data:         0.01s
Status: SUCCESS
==================================================

=== SUCCESS LOG - 2025-10-14 15:56:02 ===
Input file: /data/retarget/locomotion/raw/AMASS_SMPLXG/CMU/132/132_32_stageii.npz
Output file: ../robot/ik_based/pkl/006085.pkl
Robot type: unitree_g1
Processing time: 17.29 seconds

STEP-BY-STEP TIMING:
  Step 1 - Load SMPLX:        2.91s
  Step 2 - Align FPS:         1.44s
  Step 3 - Init Retarget:     0.21s
  Step 4 - Init Visualization: 0.00s
  Step 5 - Process Frames:    12.09s (avg: 0.075s/frame)
  Step 6 - Convert Arrays:    0.00s
  Step 7 - Forward Kinematics: 0.31s
  Step 8 - Save Data:         0.01s
Status: SUCCESS
==================================================

=== SUCCESS LOG - 2025-10-14 15:56:02 ===
Input file: /data/retarget/locomotion/raw/AMASS_SMPLXG/CMU/132/132_33_stageii.npz
Output file: ../robot/ik_based/pkl/006086.pkl
Robot type: unitree_g1
Processing time: 15.41 seconds

STEP-BY-STEP TIMING:
  Step 1 - Load SMPLX:        4.07s
  Step 2 - Align FPS:         1.05s
  Step 3 - Init Retarget:     0.34s
  Step 4 - Init Visualization: 0.00s
  Step 5 - Process Frames:    9.41s (avg: 0.092s/frame)
  Step 6 - Convert Arrays:    0.00s
  Step 7 - Forward Kinematics: 0.30s
  Step 8 - Save Data:         0.01s
Status: SUCCESS
==================================================

=== SUCCESS LOG - 2025-10-14 15:56:10 ===
Input file: /data/retarget/locomotion/raw/AMASS_SMPLXG/CMU/132/132_34_stageii.npz
Output file: ../robot/ik_based/pkl/006087.pkl
Robot type: unitree_g1
Processing time: 15.71 seconds

STEP-BY-STEP TIMING:
  Step 1 - Load SMPLX:        4.25s
  Step 2 - Align FPS:         1.57s
  Step 3 - Init Retarget:     0.26s
  Step 4 - Init Visualization: 0.00s
  Step 5 - Process Frames:    6.84s (avg: 0.053s/frame)
  Step 6 - Convert Arrays:    0.00s
  Step 7 - Forward Kinematics: 0.99s
  Step 8 - Save Data:         0.03s
Status: SUCCESS
==================================================

=== SUCCESS LOG - 2025-10-14 15:56:43 ===
Input file: /data/retarget/locomotion/raw/AMASS_SMPLXG/CMU/132/132_35_stageii.npz
Output file: ../robot/ik_based/pkl/006088.pkl
Robot type: unitree_g1
Processing time: 41.37 seconds

STEP-BY-STEP TIMING:
  Step 1 - Load SMPLX:        3.12s
  Step 2 - Align FPS:         4.54s
  Step 3 - Init Retarget:     0.45s
  Step 4 - Init Visualization: 0.00s
  Step 5 - Process Frames:    32.44s (avg: 0.103s/frame)
  Step 6 - Convert Arrays:    0.00s
  Step 7 - Forward Kinematics: 0.47s
  Step 8 - Save Data:         0.01s
Status: SUCCESS
==================================================

=== SUCCESS LOG - 2025-10-14 15:56:54 ===
Input file: /data/retarget/locomotion/raw/AMASS_SMPLXG/CMU/132/132_38_stageii.npz
Output file: ../robot/ik_based/pkl/006091.pkl
Robot type: unitree_g1
Processing time: 9.77 seconds

STEP-BY-STEP TIMING:
  Step 1 - Load SMPLX:        3.91s
  Step 2 - Align FPS:         0.65s
  Step 3 - Init Retarget:     0.29s
  Step 4 - Init Visualization: 0.00s
  Step 5 - Process Frames:    3.92s (avg: 0.087s/frame)
  Step 6 - Convert Arrays:    0.00s
  Step 7 - Forward Kinematics: 0.53s
  Step 8 - Save Data:         0.00s
Status: SUCCESS
==================================================

=== SUCCESS LOG - 2025-10-14 15:57:57 ===
Input file: /data/retarget/locomotion/raw/AMASS_SMPLXG/CMU/132/132_36_stageii.npz
Output file: ../robot/ik_based/pkl/006089.pkl
Robot type: unitree_g1
Processing time: 115.17 seconds

STEP-BY-STEP TIMING:
  Step 1 - Load SMPLX:        4.24s
  Step 2 - Align FPS:         9.58s
  Step 3 - Init Retarget:     0.21s
  Step 4 - Init Visualization: 0.00s
  Step 5 - Process Frames:    100.11s (avg: 0.103s/frame)
  Step 6 - Convert Arrays:    0.00s
  Step 7 - Forward Kinematics: 0.58s
  Step 8 - Save Data:         0.01s
Status: SUCCESS
==================================================

=== SUCCESS LOG - 2025-10-14 15:58:29 ===
Input file: /data/retarget/locomotion/raw/AMASS_SMPLXG/CMU/132/132_40_stageii.npz
Output file: ../robot/ik_based/pkl/006093.pkl
Robot type: unitree_g1
Processing time: 31.18 seconds

STEP-BY-STEP TIMING:
  Step 1 - Load SMPLX:        4.57s
  Step 2 - Align FPS:         2.70s
  Step 3 - Init Retarget:     0.27s
  Step 4 - Init Visualization: 0.00s
  Step 5 - Process Frames:    22.94s (avg: 0.109s/frame)
  Step 6 - Convert Arrays:    0.00s
  Step 7 - Forward Kinematics: 0.37s
  Step 8 - Save Data:         0.01s
Status: SUCCESS
==================================================

=== SUCCESS LOG - 2025-10-14 15:59:28 ===
Input file: /data/retarget/locomotion/raw/AMASS_SMPLXG/CMU/132/132_39_stageii.npz
Output file: ../robot/ik_based/pkl/006092.pkl
Robot type: unitree_g1
Processing time: 153.79 seconds

STEP-BY-STEP TIMING:
  Step 1 - Load SMPLX:        6.01s
  Step 2 - Align FPS:         14.47s
  Step 3 - Init Retarget:     0.29s
  Step 4 - Init Visualization: 0.00s
  Step 5 - Process Frames:    132.19s (avg: 0.085s/frame)
  Step 6 - Convert Arrays:    0.01s
  Step 7 - Forward Kinematics: 0.41s
  Step 8 - Save Data:         0.01s
Status: SUCCESS
==================================================

=== SUCCESS LOG - 2025-10-14 15:59:34 ===
Input file: /data/retarget/locomotion/raw/AMASS_SMPLXG/CMU/132/132_37_stageii.npz
Output file: ../robot/ik_based/pkl/006090.pkl
Robot type: unitree_g1
Processing time: 203.15 seconds

STEP-BY-STEP TIMING:
  Step 1 - Load SMPLX:        7.91s
  Step 2 - Align FPS:         17.87s
  Step 3 - Init Retarget:     0.30s
  Step 4 - Init Visualization: 0.00s
  Step 5 - Process Frames:    175.98s (avg: 0.105s/frame)
  Step 6 - Convert Arrays:    0.01s
  Step 7 - Forward Kinematics: 0.16s
  Step 8 - Save Data:         0.04s
Status: SUCCESS
==================================================

=== SUCCESS LOG - 2025-10-14 15:59:52 ===
Input file: /data/retarget/locomotion/raw/AMASS_SMPLXG/CMU/132/132_42_stageii.npz
Output file: ../robot/ik_based/pkl/006095.pkl
Robot type: unitree_g1
Processing time: 23.68 seconds

STEP-BY-STEP TIMING:
  Step 1 - Load SMPLX:        4.44s
  Step 2 - Align FPS:         1.36s
  Step 3 - Init Retarget:     0.70s
  Step 4 - Init Visualization: 0.00s
  Step 5 - Process Frames:    16.12s (avg: 0.094s/frame)
  Step 6 - Convert Arrays:    0.00s
  Step 7 - Forward Kinematics: 0.52s
  Step 8 - Save Data:         0.01s
Status: SUCCESS
==================================================

=== SUCCESS LOG - 2025-10-14 16:00:03 ===
Input file: /data/retarget/locomotion/raw/AMASS_SMPLXG/CMU/132/132_43_stageii.npz
Output file: ../robot/ik_based/pkl/006096.pkl
Robot type: unitree_g1
Processing time: 28.38 seconds

STEP-BY-STEP TIMING:
  Step 1 - Load SMPLX:        4.97s
  Step 2 - Align FPS:         2.62s
  Step 3 - Init Retarget:     0.27s
  Step 4 - Init Visualization: 0.00s
  Step 5 - Process Frames:    19.73s (avg: 0.098s/frame)
  Step 6 - Convert Arrays:    0.00s
  Step 7 - Forward Kinematics: 0.46s
  Step 8 - Save Data:         0.01s
Status: SUCCESS
==================================================

=== SUCCESS LOG - 2025-10-14 16:00:50 ===
Input file: /data/retarget/locomotion/raw/AMASS_SMPLXG/CMU/132/132_45_stageii.npz
Output file: ../robot/ik_based/pkl/006098.pkl
Robot type: unitree_g1
Processing time: 46.72 seconds

STEP-BY-STEP TIMING:
  Step 1 - Load SMPLX:        7.12s
  Step 2 - Align FPS:         4.59s
  Step 3 - Init Retarget:     0.26s
  Step 4 - Init Visualization: 0.00s
  Step 5 - Process Frames:    33.83s (avg: 0.089s/frame)
  Step 6 - Convert Arrays:    0.00s
  Step 7 - Forward Kinematics: 0.43s
  Step 8 - Save Data:         0.01s
Status: SUCCESS
==================================================

=== SUCCESS LOG - 2025-10-14 16:01:19 ===
Input file: /data/retarget/locomotion/raw/AMASS_SMPLXG/CMU/132/132_41_stageii.npz
Output file: ../robot/ik_based/pkl/006094.pkl
Robot type: unitree_g1
Processing time: 168.85 seconds

STEP-BY-STEP TIMING:
  Step 1 - Load SMPLX:        6.24s
  Step 2 - Align FPS:         17.17s
  Step 3 - Init Retarget:     0.34s
  Step 4 - Init Visualization: 0.00s
  Step 5 - Process Frames:    144.25s (avg: 0.091s/frame)
  Step 6 - Convert Arrays:    0.01s
  Step 7 - Forward Kinematics: 0.40s
  Step 8 - Save Data:         0.02s
Status: SUCCESS
==================================================

=== SUCCESS LOG - 2025-10-14 16:01:23 ===
Input file: /data/retarget/locomotion/raw/AMASS_SMPLXG/CMU/132/132_46_stageii.npz
Output file: ../robot/ik_based/pkl/006099.pkl
Robot type: unitree_g1
Processing time: 32.44 seconds

STEP-BY-STEP TIMING:
  Step 1 - Load SMPLX:        4.60s
  Step 2 - Align FPS:         3.85s
  Step 3 - Init Retarget:     0.36s
  Step 4 - Init Visualization: 0.00s
  Step 5 - Process Frames:    23.20s (avg: 0.076s/frame)
  Step 6 - Convert Arrays:    0.00s
  Step 7 - Forward Kinematics: 0.21s
  Step 8 - Save Data:         0.01s
Status: SUCCESS
==================================================

=== SUCCESS LOG - 2025-10-14 16:02:00 ===
Input file: /data/retarget/locomotion/raw/AMASS_SMPLXG/CMU/132/132_47_stageii.npz
Output file: ../robot/ik_based/pkl/006100.pkl
Robot type: unitree_g1
Processing time: 40.47 seconds

STEP-BY-STEP TIMING:
  Step 1 - Load SMPLX:        4.69s
  Step 2 - Align FPS:         3.31s
  Step 3 - Init Retarget:     0.27s
  Step 4 - Init Visualization: 0.00s
  Step 5 - Process Frames:    31.43s (avg: 0.083s/frame)
  Step 6 - Convert Arrays:    0.00s
  Step 7 - Forward Kinematics: 0.39s
  Step 8 - Save Data:         0.02s
Status: SUCCESS
==================================================

=== SUCCESS LOG - 2025-10-14 16:02:10 ===
Input file: /data/retarget/locomotion/raw/AMASS_SMPLXG/CMU/132/132_48_stageii.npz
Output file: ../robot/ik_based/pkl/006101.pkl
Robot type: unitree_g1
Processing time: 46.46 seconds

STEP-BY-STEP TIMING:
  Step 1 - Load SMPLX:        5.32s
  Step 2 - Align FPS:         4.62s
  Step 3 - Init Retarget:     0.29s
  Step 4 - Init Visualization: 0.00s
  Step 5 - Process Frames:    34.85s (avg: 0.086s/frame)
  Step 6 - Convert Arrays:    0.00s
  Step 7 - Forward Kinematics: 0.27s
  Step 8 - Save Data:         0.02s
Status: SUCCESS
==================================================

=== SUCCESS LOG - 2025-10-14 16:02:19 ===
Input file: /data/retarget/locomotion/raw/AMASS_SMPLXG/CMU/132/132_44_stageii.npz
Output file: ../robot/ik_based/pkl/006097.pkl
Robot type: unitree_g1
Processing time: 146.25 seconds

STEP-BY-STEP TIMING:
  Step 1 - Load SMPLX:        5.68s
  Step 2 - Align FPS:         11.84s
  Step 3 - Init Retarget:     0.23s
  Step 4 - Init Visualization: 0.00s
  Step 5 - Process Frames:    127.84s (avg: 0.098s/frame)
  Step 6 - Convert Arrays:    0.01s
  Step 7 - Forward Kinematics: 0.31s
  Step 8 - Save Data:         0.01s
Status: SUCCESS
==================================================

=== SUCCESS LOG - 2025-10-14 16:02:19 ===
Input file: /data/retarget/locomotion/raw/AMASS_SMPLXG/CMU/132/132_51_stageii.npz
Output file: ../robot/ik_based/pkl/006103.pkl
Robot type: unitree_g1
Processing time: 9.05 seconds

STEP-BY-STEP TIMING:
  Step 1 - Load SMPLX:        3.99s
  Step 2 - Align FPS:         0.57s
  Step 3 - Init Retarget:     0.29s
  Step 4 - Init Visualization: 0.00s
  Step 5 - Process Frames:    3.90s (avg: 0.091s/frame)
  Step 6 - Convert Arrays:    0.00s
  Step 7 - Forward Kinematics: 0.15s
  Step 8 - Save Data:         0.00s
Status: SUCCESS
==================================================

=== SUCCESS LOG - 2025-10-14 16:02:59 ===
Input file: /data/retarget/locomotion/raw/AMASS_SMPLXG/CMU/132/132_50_stageii.npz
Output file: ../robot/ik_based/pkl/006102.pkl
Robot type: unitree_g1
Processing time: 58.50 seconds

STEP-BY-STEP TIMING:
  Step 1 - Load SMPLX:        4.16s
  Step 2 - Align FPS:         5.38s
  Step 3 - Init Retarget:     0.26s
  Step 4 - Init Visualization: 0.00s
  Step 5 - Process Frames:    47.97s (avg: 0.090s/frame)
  Step 6 - Convert Arrays:    0.00s
  Step 7 - Forward Kinematics: 0.34s
  Step 8 - Save Data:         0.01s
Status: SUCCESS
==================================================

=== SUCCESS LOG - 2025-10-14 16:03:14 ===
Input file: /data/retarget/locomotion/raw/AMASS_SMPLXG/CMU/132/132_52_stageii.npz
Output file: ../robot/ik_based/pkl/006104.pkl
Robot type: unitree_g1
Processing time: 54.05 seconds

STEP-BY-STEP TIMING:
  Step 1 - Load SMPLX:        3.14s
  Step 2 - Align FPS:         4.63s
  Step 3 - Init Retarget:     0.37s
  Step 4 - Init Visualization: 0.00s
  Step 5 - Process Frames:    44.99s (avg: 0.135s/frame)
  Step 6 - Convert Arrays:    0.01s
  Step 7 - Forward Kinematics: 0.68s
  Step 8 - Save Data:         0.01s
Status: SUCCESS
==================================================

=== SUCCESS LOG - 2025-10-14 16:04:50 ===
Input file: /data/retarget/locomotion/raw/AMASS_SMPLXG/CMU/132/132_55_stageii.npz
Output file: ../robot/ik_based/pkl/006107.pkl
Robot type: unitree_g1
Processing time: 95.91 seconds

STEP-BY-STEP TIMING:
  Step 1 - Load SMPLX:        6.84s
  Step 2 - Align FPS:         12.25s
  Step 3 - Init Retarget:     0.29s
  Step 4 - Init Visualization: 0.00s
  Step 5 - Process Frames:    75.64s (avg: 0.098s/frame)
  Step 6 - Convert Arrays:    0.00s
  Step 7 - Forward Kinematics: 0.41s
  Step 8 - Save Data:         0.01s
Status: SUCCESS
==================================================

=== ERROR LOG - 2025-10-14 16:04:55 ===
Input file: /data/retarget/locomotion/raw/AMASS_SMPLXG/CMU/132/male_stagei.npz
Output file: ../robot/ik_based/pkl/006108.pkl
Robot type: unitree_g1
Processing time: 3.92 seconds
Error message: 'pose_body is not a file in the archive'
Error type: KeyError
==================================================

=== SUCCESS LOG - 2025-10-14 16:05:34 ===
Input file: /data/retarget/locomotion/raw/AMASS_SMPLXG/CMU/132/132_53_stageii.npz
Output file: ../robot/ik_based/pkl/006105.pkl
Robot type: unitree_g1
Processing time: 194.38 seconds

STEP-BY-STEP TIMING:
  Step 1 - Load SMPLX:        4.26s
  Step 2 - Align FPS:         26.00s
  Step 3 - Init Retarget:     0.26s
  Step 4 - Init Visualization: 0.00s
  Step 5 - Process Frames:    163.02s (avg: 0.100s/frame)
  Step 6 - Convert Arrays:    0.01s
  Step 7 - Forward Kinematics: 0.41s
  Step 8 - Save Data:         0.01s
Status: SUCCESS
==================================================

=== SUCCESS LOG - 2025-10-14 16:05:43 ===
Input file: /data/retarget/locomotion/raw/AMASS_SMPLXG/CMU/133/133_01_stageii.npz
Output file: ../robot/ik_based/pkl/006109.pkl
Robot type: unitree_g1
Processing time: 48.29 seconds

STEP-BY-STEP TIMING:
  Step 1 - Load SMPLX:        4.75s
  Step 2 - Align FPS:         4.19s
  Step 3 - Init Retarget:     0.38s
  Step 4 - Init Visualization: 0.00s
  Step 5 - Process Frames:    37.64s (avg: 0.110s/frame)
  Step 6 - Convert Arrays:    0.00s
  Step 7 - Forward Kinematics: 1.00s
  Step 8 - Save Data:         0.01s
Status: SUCCESS
==================================================

=== SUCCESS LOG - 2025-10-14 16:05:58 ===
Input file: /data/retarget/locomotion/raw/AMASS_SMPLXG/CMU/132/132_54_stageii.npz
Output file: ../robot/ik_based/pkl/006106.pkl
Robot type: unitree_g1
Processing time: 178.39 seconds

STEP-BY-STEP TIMING:
  Step 1 - Load SMPLX:        5.80s
  Step 2 - Align FPS:         15.48s
  Step 3 - Init Retarget:     0.33s
  Step 4 - Init Visualization: 0.00s
  Step 5 - Process Frames:    155.84s (avg: 0.103s/frame)
  Step 6 - Convert Arrays:    0.00s
  Step 7 - Forward Kinematics: 0.46s
  Step 8 - Save Data:         0.02s
Status: SUCCESS
==================================================

=== SUCCESS LOG - 2025-10-14 16:06:18 ===
Input file: /data/retarget/locomotion/raw/AMASS_SMPLXG/CMU/133/133_03_stageii.npz
Output file: ../robot/ik_based/pkl/006111.pkl
Robot type: unitree_g1
Processing time: 34.06 seconds

STEP-BY-STEP TIMING:
  Step 1 - Load SMPLX:        3.70s
  Step 2 - Align FPS:         3.56s
  Step 3 - Init Retarget:     0.28s
  Step 4 - Init Visualization: 0.00s
  Step 5 - Process Frames:    25.49s (avg: 0.081s/frame)
  Step 6 - Convert Arrays:    0.00s
  Step 7 - Forward Kinematics: 0.50s
  Step 8 - Save Data:         0.01s
Status: SUCCESS
==================================================

=== SUCCESS LOG - 2025-10-14 16:06:19 ===
Input file: /data/retarget/locomotion/raw/AMASS_SMPLXG/CMU/133/133_02_stageii.npz
Output file: ../robot/ik_based/pkl/006110.pkl
Robot type: unitree_g1
Processing time: 44.31 seconds

STEP-BY-STEP TIMING:
  Step 1 - Load SMPLX:        4.91s
  Step 2 - Align FPS:         3.91s
  Step 3 - Init Retarget:     0.27s
  Step 4 - Init Visualization: 0.00s
  Step 5 - Process Frames:    34.67s (avg: 0.097s/frame)
  Step 6 - Convert Arrays:    0.00s
  Step 7 - Forward Kinematics: 0.26s
  Step 8 - Save Data:         0.01s
Status: SUCCESS
==================================================

=== SUCCESS LOG - 2025-10-14 16:06:21 ===
Input file: /data/retarget/locomotion/raw/AMASS_SMPLXG/CMU/133/133_04_stageii.npz
Output file: ../robot/ik_based/pkl/006112.pkl
Robot type: unitree_g1
Processing time: 21.93 seconds

STEP-BY-STEP TIMING:
  Step 1 - Load SMPLX:        4.76s
  Step 2 - Align FPS:         4.76s
  Step 3 - Init Retarget:     0.31s
  Step 4 - Init Visualization: 0.00s
  Step 5 - Process Frames:    12.04s (avg: 0.062s/frame)
  Step 6 - Convert Arrays:    0.00s
  Step 7 - Forward Kinematics: 0.02s
  Step 8 - Save Data:         0.00s
Status: SUCCESS
==================================================

=== SUCCESS LOG - 2025-10-14 16:06:46 ===
Input file: /data/retarget/locomotion/raw/AMASS_SMPLXG/CMU/133/133_06_stageii.npz
Output file: ../robot/ik_based/pkl/006114.pkl
Robot type: unitree_g1
Processing time: 26.37 seconds

STEP-BY-STEP TIMING:
  Step 1 - Load SMPLX:        2.13s
  Step 2 - Align FPS:         2.20s
  Step 3 - Init Retarget:     0.28s
  Step 4 - Init Visualization: 0.00s
  Step 5 - Process Frames:    20.94s (avg: 0.095s/frame)
  Step 6 - Convert Arrays:    0.00s
  Step 7 - Forward Kinematics: 0.48s
  Step 8 - Save Data:         0.01s
Status: SUCCESS
==================================================

=== SUCCESS LOG - 2025-10-14 16:06:47 ===
Input file: /data/retarget/locomotion/raw/AMASS_SMPLXG/CMU/133/133_05_stageii.npz
Output file: ../robot/ik_based/pkl/006113.pkl
Robot type: unitree_g1
Processing time: 28.39 seconds

STEP-BY-STEP TIMING:
  Step 1 - Load SMPLX:        2.81s
  Step 2 - Align FPS:         2.46s
  Step 3 - Init Retarget:     0.38s
  Step 4 - Init Visualization: 0.00s
  Step 5 - Process Frames:    22.30s (avg: 0.091s/frame)
  Step 6 - Convert Arrays:    0.00s
  Step 7 - Forward Kinematics: 0.22s
  Step 8 - Save Data:         0.01s
Status: SUCCESS
==================================================

=== SUCCESS LOG - 2025-10-14 16:06:48 ===
Input file: /data/retarget/locomotion/raw/AMASS_SMPLXG/CMU/133/133_07_stageii.npz
Output file: ../robot/ik_based/pkl/006115.pkl
Robot type: unitree_g1
Processing time: 26.80 seconds

STEP-BY-STEP TIMING:
  Step 1 - Load SMPLX:        3.77s
  Step 2 - Align FPS:         3.02s
  Step 3 - Init Retarget:     0.31s
  Step 4 - Init Visualization: 0.00s
  Step 5 - Process Frames:    19.64s (avg: 0.080s/frame)
  Step 6 - Convert Arrays:    0.00s
  Step 7 - Forward Kinematics: 0.02s
  Step 8 - Save Data:         0.00s
Status: SUCCESS
==================================================

=== SUCCESS LOG - 2025-10-14 16:07:27 ===
Input file: /data/retarget/locomotion/raw/AMASS_SMPLXG/CMU/133/133_08_stageii.npz
Output file: ../robot/ik_based/pkl/006116.pkl
Robot type: unitree_g1
Processing time: 40.51 seconds

STEP-BY-STEP TIMING:
  Step 1 - Load SMPLX:        2.13s
  Step 2 - Align FPS:         5.67s
  Step 3 - Init Retarget:     1.31s
  Step 4 - Init Visualization: 0.00s
  Step 5 - Process Frames:    30.48s (avg: 0.099s/frame)
  Step 6 - Convert Arrays:    0.00s
  Step 7 - Forward Kinematics: 0.44s
  Step 8 - Save Data:         0.01s
Status: SUCCESS
==================================================

=== SUCCESS LOG - 2025-10-14 16:07:30 ===
Input file: /data/retarget/locomotion/raw/AMASS_SMPLXG/CMU/133/133_10_stageii.npz
Output file: ../robot/ik_based/pkl/006118.pkl
Robot type: unitree_g1
Processing time: 42.56 seconds

STEP-BY-STEP TIMING:
  Step 1 - Load SMPLX:        1.88s
  Step 2 - Align FPS:         5.45s
  Step 3 - Init Retarget:     0.65s
  Step 4 - Init Visualization: 0.00s
  Step 5 - Process Frames:    34.07s (avg: 0.103s/frame)
  Step 6 - Convert Arrays:    0.00s
  Step 7 - Forward Kinematics: 0.22s
  Step 8 - Save Data:         0.01s
Status: SUCCESS
==================================================

=== SUCCESS LOG - 2025-10-14 16:07:34 ===
Input file: /data/retarget/locomotion/raw/AMASS_SMPLXG/CMU/133/133_09_stageii.npz
Output file: ../robot/ik_based/pkl/006117.pkl
Robot type: unitree_g1
Processing time: 46.31 seconds

STEP-BY-STEP TIMING:
  Step 1 - Load SMPLX:        2.10s
  Step 2 - Align FPS:         6.30s
  Step 3 - Init Retarget:     0.28s
  Step 4 - Init Visualization: 0.00s
  Step 5 - Process Frames:    37.14s (avg: 0.086s/frame)
  Step 6 - Convert Arrays:    0.00s
  Step 7 - Forward Kinematics: 0.46s
  Step 8 - Save Data:         0.00s
Status: SUCCESS
==================================================

=== SUCCESS LOG - 2025-10-14 16:07:57 ===
Input file: /data/retarget/locomotion/raw/AMASS_SMPLXG/CMU/133/133_11_stageii.npz
Output file: ../robot/ik_based/pkl/006119.pkl
Robot type: unitree_g1
Processing time: 30.08 seconds

STEP-BY-STEP TIMING:
  Step 1 - Load SMPLX:        4.12s
  Step 2 - Align FPS:         1.95s
  Step 3 - Init Retarget:     0.21s
  Step 4 - Init Visualization: 0.00s
  Step 5 - Process Frames:    22.91s (avg: 0.086s/frame)
  Step 6 - Convert Arrays:    0.00s
  Step 7 - Forward Kinematics: 0.46s
  Step 8 - Save Data:         0.01s
Status: SUCCESS
==================================================

=== SUCCESS LOG - 2025-10-14 16:08:00 ===
Input file: /data/retarget/locomotion/raw/AMASS_SMPLXG/CMU/133/133_12_stageii.npz
Output file: ../robot/ik_based/pkl/006120.pkl
Robot type: unitree_g1
Processing time: 28.83 seconds

STEP-BY-STEP TIMING:
  Step 1 - Load SMPLX:        3.70s
  Step 2 - Align FPS:         1.83s
  Step 3 - Init Retarget:     0.29s
  Step 4 - Init Visualization: 0.00s
  Step 5 - Process Frames:    22.49s (avg: 0.093s/frame)
  Step 6 - Convert Arrays:    0.00s
  Step 7 - Forward Kinematics: 0.27s
  Step 8 - Save Data:         0.00s
Status: SUCCESS
==================================================

=== SUCCESS LOG - 2025-10-14 16:08:01 ===
Input file: /data/retarget/locomotion/raw/AMASS_SMPLXG/CMU/133/133_13_stageii.npz
Output file: ../robot/ik_based/pkl/006121.pkl
Robot type: unitree_g1
Processing time: 27.45 seconds

STEP-BY-STEP TIMING:
  Step 1 - Load SMPLX:        4.81s
  Step 2 - Align FPS:         3.84s
  Step 3 - Init Retarget:     0.25s
  Step 4 - Init Visualization: 0.00s
  Step 5 - Process Frames:    18.47s (avg: 0.065s/frame)
  Step 6 - Convert Arrays:    0.00s
  Step 7 - Forward Kinematics: 0.03s
  Step 8 - Save Data:         0.00s
Status: SUCCESS
==================================================

=== SUCCESS LOG - 2025-10-14 16:08:18 ===
Input file: /data/retarget/locomotion/raw/AMASS_SMPLXG/CMU/133/133_16_stageii.npz
Output file: ../robot/ik_based/pkl/006124.pkl
Robot type: unitree_g1
Processing time: 16.40 seconds

STEP-BY-STEP TIMING:
  Step 1 - Load SMPLX:        3.47s
  Step 2 - Align FPS:         1.67s
  Step 3 - Init Retarget:     0.28s
  Step 4 - Init Visualization: 0.00s
  Step 5 - Process Frames:    9.81s (avg: 0.078s/frame)
  Step 6 - Convert Arrays:    0.00s
  Step 7 - Forward Kinematics: 0.66s
  Step 8 - Save Data:         0.01s
Status: SUCCESS
==================================================

=== SUCCESS LOG - 2025-10-14 16:08:21 ===
Input file: /data/retarget/locomotion/raw/AMASS_SMPLXG/CMU/133/133_14_stageii.npz
Output file: ../robot/ik_based/pkl/006122.pkl
Robot type: unitree_g1
Processing time: 22.93 seconds

STEP-BY-STEP TIMING:
  Step 1 - Load SMPLX:        3.93s
  Step 2 - Align FPS:         1.32s
  Step 3 - Init Retarget:     0.22s
  Step 4 - Init Visualization: 0.00s
  Step 5 - Process Frames:    17.11s (avg: 0.077s/frame)
  Step 6 - Convert Arrays:    0.00s
  Step 7 - Forward Kinematics: 0.17s
  Step 8 - Save Data:         0.00s
Status: SUCCESS
==================================================

=== SUCCESS LOG - 2025-10-14 16:08:22 ===
Input file: /data/retarget/locomotion/raw/AMASS_SMPLXG/CMU/133/133_15_stageii.npz
Output file: ../robot/ik_based/pkl/006123.pkl
Robot type: unitree_g1
Processing time: 21.77 seconds

STEP-BY-STEP TIMING:
  Step 1 - Load SMPLX:        3.46s
  Step 2 - Align FPS:         1.99s
  Step 3 - Init Retarget:     0.33s
  Step 4 - Init Visualization: 0.00s
  Step 5 - Process Frames:    15.92s (avg: 0.072s/frame)
  Step 6 - Convert Arrays:    0.00s
  Step 7 - Forward Kinematics: 0.02s
  Step 8 - Save Data:         0.00s
Status: SUCCESS
==================================================

=== SUCCESS LOG - 2025-10-14 16:08:36 ===
Input file: /data/retarget/locomotion/raw/AMASS_SMPLXG/CMU/133/133_17_stageii.npz
Output file: ../robot/ik_based/pkl/006125.pkl
Robot type: unitree_g1
Processing time: 18.13 seconds

STEP-BY-STEP TIMING:
  Step 1 - Load SMPLX:        3.58s
  Step 2 - Align FPS:         0.90s
  Step 3 - Init Retarget:     0.24s
  Step 4 - Init Visualization: 0.00s
  Step 5 - Process Frames:    12.90s (avg: 0.090s/frame)
  Step 6 - Convert Arrays:    0.01s
  Step 7 - Forward Kinematics: 0.25s
  Step 8 - Save Data:         0.01s
Status: SUCCESS
==================================================

=== SUCCESS LOG - 2025-10-14 16:08:36 ===
Input file: /data/retarget/locomotion/raw/AMASS_SMPLXG/CMU/133/133_18_stageii.npz
Output file: ../robot/ik_based/pkl/006126.pkl
Robot type: unitree_g1
Processing time: 15.46 seconds

STEP-BY-STEP TIMING:
  Step 1 - Load SMPLX:        2.47s
  Step 2 - Align FPS:         0.95s
  Step 3 - Init Retarget:     0.24s
  Step 4 - Init Visualization: 0.00s
  Step 5 - Process Frames:    11.27s (avg: 0.096s/frame)
  Step 6 - Convert Arrays:    0.00s
  Step 7 - Forward Kinematics: 0.18s
  Step 8 - Save Data:         0.00s
Status: SUCCESS
==================================================

=== SUCCESS LOG - 2025-10-14 16:08:43 ===
Input file: /data/retarget/locomotion/raw/AMASS_SMPLXG/CMU/133/133_19_stageii.npz
Output file: ../robot/ik_based/pkl/006127.pkl
Robot type: unitree_g1
Processing time: 20.94 seconds

STEP-BY-STEP TIMING:
  Step 1 - Load SMPLX:        3.45s
  Step 2 - Align FPS:         3.07s
  Step 3 - Init Retarget:     0.27s
  Step 4 - Init Visualization: 0.00s
  Step 5 - Process Frames:    12.99s (avg: 0.062s/frame)
  Step 6 - Convert Arrays:    0.00s
  Step 7 - Forward Kinematics: 0.65s
  Step 8 - Save Data:         0.00s
Status: SUCCESS
==================================================

=== SUCCESS LOG - 2025-10-14 16:08:59 ===
Input file: /data/retarget/locomotion/raw/AMASS_SMPLXG/CMU/133/133_21_stageii.npz
Output file: ../robot/ik_based/pkl/006129.pkl
Robot type: unitree_g1
Processing time: 22.09 seconds

STEP-BY-STEP TIMING:
  Step 1 - Load SMPLX:        2.73s
  Step 2 - Align FPS:         2.75s
  Step 3 - Init Retarget:     0.57s
  Step 4 - Init Visualization: 0.00s
  Step 5 - Process Frames:    15.20s (avg: 0.078s/frame)
  Step 6 - Convert Arrays:    0.00s
  Step 7 - Forward Kinematics: 0.39s
  Step 8 - Save Data:         0.01s
Status: SUCCESS
==================================================

=== SUCCESS LOG - 2025-10-14 16:09:02 ===
Input file: /data/retarget/locomotion/raw/AMASS_SMPLXG/CMU/133/133_20_stageii.npz
Output file: ../robot/ik_based/pkl/006128.pkl
Robot type: unitree_g1
Processing time: 25.26 seconds

STEP-BY-STEP TIMING:
  Step 1 - Load SMPLX:        2.65s
  Step 2 - Align FPS:         3.35s
  Step 3 - Init Retarget:     0.22s
  Step 4 - Init Visualization: 0.00s
  Step 5 - Process Frames:    18.64s (avg: 0.069s/frame)
  Step 6 - Convert Arrays:    0.00s
[...]
Error type: OutOfMemoryError
==================================================

=== SUCCESS LOG - 2025-10-15 05:20:17 ===
Input file: /data/retarget/locomotion/raw/AMASS_SMPLXG/GRAB/s9/torussmall_inspect_1_stageii.npz
Output file: ../robot/ik_based/pkl/010316.pkl
Robot type: unitree_g1
Processing time: 84.94 seconds

STEP-BY-STEP TIMING:
  Step 1 - Load SMPLX:        10.02s
  Step 2 - Align FPS:         13.28s
  Step 3 - Init Retarget:     0.71s
  Step 4 - Init Visualization: 0.00s
  Step 5 - Process Frames:    60.09s (avg: 0.401s/frame)
  Step 6 - Convert Arrays:    0.00s
  Step 7 - Forward Kinematics: 0.32s
  Step 8 - Save Data:         0.05s
Status: SUCCESS
==================================================

=== SUCCESS LOG - 2025-10-15 05:20:21 ===
Input file: /data/retarget/locomotion/raw/AMASS_SMPLXG/GRAB/s9/torussmall_pass_1_stageii.npz
Output file: ../robot/ik_based/pkl/010317.pkl
Robot type: unitree_g1
Processing time: 80.94 seconds

STEP-BY-STEP TIMING:
  Step 1 - Load SMPLX:        18.14s
  Step 2 - Align FPS:         14.69s
  Step 3 - Init Retarget:     1.36s
  Step 4 - Init Visualization: 0.00s
  Step 5 - Process Frames:    45.58s (avg: 0.328s/frame)
  Step 6 - Convert Arrays:    0.00s
  Step 7 - Forward Kinematics: 0.43s
  Step 8 - Save Data:         0.00s
Status: SUCCESS
==================================================

=== SUCCESS LOG - 2025-10-15 05:22:17 ===
Input file: /data/retarget/locomotion/raw/AMASS_SMPLXG/GRAB/s9/watch_set_1_stageii.npz
Output file: ../robot/ik_based/pkl/010320.pkl
Robot type: unitree_g1
Processing time: 115.82 seconds

STEP-BY-STEP TIMING:
  Step 1 - Load SMPLX:        16.07s
  Step 2 - Align FPS:         13.47s
  Step 3 - Init Retarget:     0.91s
  Step 4 - Init Visualization: 0.00s
  Step 5 - Process Frames:    84.73s (avg: 0.359s/frame)
  Step 6 - Convert Arrays:    0.00s
  Step 7 - Forward Kinematics: 0.20s
  Step 8 - Save Data:         0.00s
Status: SUCCESS
==================================================

=== SUCCESS LOG - 2025-10-15 05:22:22 ===
Input file: /data/retarget/locomotion/raw/AMASS_SMPLXG/GRAB/s9/watch_pass_1_stageii.npz
Output file: ../robot/ik_based/pkl/010319.pkl
Robot type: unitree_g1
Processing time: 123.30 seconds

STEP-BY-STEP TIMING:
  Step 1 - Load SMPLX:        16.49s
  Step 2 - Align FPS:         16.02s
  Step 3 - Init Retarget:     1.20s
  Step 4 - Init Visualization: 0.00s
  Step 5 - Process Frames:    89.09s (avg: 0.323s/frame)
  Step 6 - Convert Arrays:    0.00s
  Step 7 - Forward Kinematics: 0.20s
  Step 8 - Save Data:         0.00s
Status: SUCCESS
==================================================

=== ERROR LOG - 2025-10-15 05:23:23 ===
Input file: /data/retarget/locomotion/raw/AMASS_SMPLXG/GRAB/s9/torussmall_pick_all_stageii.npz
Output file: ../robot/ik_based/pkl/010318.pkl
Robot type: unitree_g1
Processing time: 218.48 seconds

STEP-BY-STEP TIMING (FAILED):
  Load Smplx: 18.23s
  Align Fps: 41.45s
  Init Retarget: 2.24s
  Init Visualization: 0.00s
  Process Frames: 155.87s (avg: 0.249s/frame)
  Convert Arrays: 0.00s
  Forward Kinematics: 0.12s
Error message: CUDA out of memory. Tried to allocate 2.00 MiB. GPU 0 has a total capacity of 23.58 GiB of which 73.00 MiB is free. Process 106491 has 328.00 MiB memory in use. Including non-PyTorch memory, this process has 364.00 MiB memory in use. Process 381781 has 328.00 MiB memory in use. Process 651230 has 336.00 MiB memory in use. Process 651323 has 336.00 MiB memory in use. Process 651495 has 336.00 MiB memory in use. Process 651680 has 336.00 MiB memory in use. Process 652122 has 336.00 MiB memory in use. Process 652552 has 336.00 MiB memory in use. Process 758984 has 326.00 MiB memory in use. Process 759061 has 326.00 MiB memory in use. Process 759140 has 326.00 MiB memory in use. Process 759277 has 326.00 MiB memory in use. Process 759587 has 328.00 MiB memory in use. Process 759754 has 326.00 MiB memory in use. Process 760292 has 326.00 MiB memory in use. Process 760574 has 328.00 MiB memory in use. Process 760908 has 326.00 MiB memory in use. Process 761223 has 328.00 MiB memory in use. Process 761507 has 326.00 MiB memory in use. Process 761784 has 328.00 MiB memory in use. Process 762065 has 326.00 MiB memory in use. Process 762398 has 326.00 MiB memory in use. Process 762712 has 328.00 MiB memory in use. Process 763207 has 326.00 MiB memory in use. Process 763626 has 326.00 MiB memory in use. Process 763813 has 326.00 MiB memory in use. Process 764099 has 60.00 MiB memory in use. Process 764277 has 326.00 MiB memory in use. Process 764470 has 326.00 MiB memory in use. Process 764800 has 326.00 MiB memory in use. Process 765270 has 326.00 MiB memory in use. Process 765495 has 326.00 MiB memory in use. Process 765996 has 326.00 MiB memory in use. Process 766580 has 328.00 MiB memory in use. Process 766668 has 326.00 MiB memory in use. Process 767492 has 326.00 MiB memory in use. Process 767720 has 326.00 MiB memory in use. Process 767797 has 328.00 MiB memory in use. Process 768541 has 326.00 MiB memory in use. Process 769125 has 326.00 MiB memory in use. Process 768850 has 326.00 MiB memory in use. Process 769686 has 326.00 MiB memory in use. Process 769459 has 326.00 MiB memory in use. Process 769827 has 326.00 MiB memory in use. Process 770524 has 326.00 MiB memory in use. Process 770888 has 326.00 MiB memory in use. Process 770316 has 326.00 MiB memory in use. Process 771275 has 326.00 MiB memory in use. Process 771105 has 326.00 MiB memory in use. Process 771771 has 326.00 MiB memory in use. Process 771619 has 326.00 MiB memory in use. Process 772148 has 326.00 MiB memory in use. Process 772899 has 326.00 MiB memory in use. Process 772664 has 326.00 MiB memory in use. Process 773176 has 326.00 MiB memory in use. Process 773279 has 326.00 MiB memory in use. Process 773623 has 326.00 MiB memory in use. Process 774056 has 326.00 MiB memory in use. Process 774461 has 326.00 MiB memory in use. Process 774726 has 328.00 MiB memory in use. Process 774904 has 326.00 MiB memory in use. Process 775026 has 326.00 MiB memory in use. Process 775459 has 326.00 MiB memory in use. Process 775737 has 326.00 MiB memory in use. Process 775847 has 326.00 MiB memory in use. Process 776237 has 326.00 MiB memory in use. Process 776606 has 328.00 MiB memory in use. Process 776978 has 326.00 MiB memory in use. Process 776886 has 326.00 MiB memory in use. Process 777350 has 326.00 MiB memory in use. Process 777531 has 326.00 MiB memory in use. Process 879266 has 326.00 MiB memory in use. Of the allocated memory 26.13 MiB is allocated by PyTorch, and 15.87 MiB is reserved by PyTorch but unallocated. If reserved but unallocated memory is large try setting PYTORCH_CUDA_ALLOC_CONF=expandable_segments:True to avoid fragmentation.  See documentation for Memory Management  (https://pytorch.org/docs/stable/notes/cuda.html#environment-variables)
Error type: OutOfMemoryError
==================================================

=== SUCCESS LOG - 2025-10-15 05:24:07 ===
Input file: /data/retarget/locomotion/raw/AMASS_SMPLXG/GRAB/s9/watch_set_2_stageii.npz
Output file: ../robot/ik_based/pkl/010321.pkl
Robot type: unitree_g1
Processing time: 109.41 seconds

STEP-BY-STEP TIMING:
  Step 1 - Load SMPLX:        4.36s
  Step 2 - Align FPS:         10.54s
  Step 3 - Init Retarget:     0.88s
  Step 4 - Init Visualization: 0.00s
  Step 5 - Process Frames:    92.58s (avg: 0.333s/frame)
  Step 6 - Convert Arrays:    0.00s
  Step 7 - Forward Kinematics: 0.45s
  Step 8 - Save Data:         0.03s
Status: SUCCESS
==================================================

=== SUCCESS LOG - 2025-10-15 05:24:12 ===
Input file: /data/retarget/locomotion/raw/AMASS_SMPLXG/GRAB/s9/waterbottle_drink_1_stageii.npz
Output file: ../robot/ik_based/pkl/010322.pkl
Robot type: unitree_g1
Processing time: 109.70 seconds

STEP-BY-STEP TIMING:
  Step 1 - Load SMPLX:        5.72s
  Step 2 - Align FPS:         11.87s
  Step 3 - Init Retarget:     1.01s
  Step 4 - Init Visualization: 0.00s
  Step 5 - Process Frames:    90.32s (avg: 0.347s/frame)
  Step 6 - Convert Arrays:    0.00s
  Step 7 - Forward Kinematics: 0.28s
  Step 8 - Save Data:         0.01s
Status: SUCCESS
==================================================

=== SUCCESS LOG - 2025-10-15 05:24:56 ===
Input file: /data/retarget/locomotion/raw/AMASS_SMPLXG/GRAB/s9/waterbottle_open_1_stageii.npz
Output file: ../robot/ik_based/pkl/010323.pkl
Robot type: unitree_g1
Processing time: 90.16 seconds

STEP-BY-STEP TIMING:
  Step 1 - Load SMPLX:        18.90s
  Step 2 - Align FPS:         18.36s
  Step 3 - Init Retarget:     1.29s
  Step 4 - Init Visualization: 0.00s
  Step 5 - Process Frames:    50.59s (avg: 0.265s/frame)
  Step 6 - Convert Arrays:    0.00s
  Step 7 - Forward Kinematics: 0.61s
  Step 8 - Save Data:         0.01s
Status: SUCCESS
==================================================

=== SUCCESS LOG - 2025-10-15 05:25:39 ===
Input file: /data/retarget/locomotion/raw/AMASS_SMPLXG/GRAB/s9/waterbottle_pass_1_stageii.npz
Output file: ../robot/ik_based/pkl/010324.pkl
Robot type: unitree_g1
Processing time: 90.34 seconds

STEP-BY-STEP TIMING:
  Step 1 - Load SMPLX:        12.45s
  Step 2 - Align FPS:         9.86s
  Step 3 - Init Retarget:     0.61s
  Step 4 - Init Visualization: 0.00s
  Step 5 - Process Frames:    66.85s (avg: 0.408s/frame)
  Step 6 - Convert Arrays:    0.01s
  Step 7 - Forward Kinematics: 0.08s
  Step 8 - Save Data:         0.02s
Status: SUCCESS
==================================================

=== SUCCESS LOG - 2025-10-15 05:27:14 ===
Input file: /data/retarget/locomotion/raw/AMASS_SMPLXG/GRAB/s9/waterbottle_pour_1_stageii.npz
Output file: ../robot/ik_based/pkl/010326.pkl
Robot type: unitree_g1
Processing time: 136.55 seconds

STEP-BY-STEP TIMING:
  Step 1 - Load SMPLX:        21.54s
  Step 2 - Align FPS:         24.79s
  Step 3 - Init Retarget:     1.81s
  Step 4 - Init Visualization: 0.00s
  Step 5 - Process Frames:    87.81s (avg: 0.378s/frame)
  Step 6 - Convert Arrays:    0.06s
  Step 7 - Forward Kinematics: 0.26s
  Step 8 - Save Data:         0.01s
Status: SUCCESS
==================================================

=== SUCCESS LOG - 2025-10-15 05:27:37 ===
Input file: /data/retarget/locomotion/raw/AMASS_SMPLXG/GRAB/s9/waterbottle_shake_1_stageii.npz
Output file: ../robot/ik_based/pkl/010327.pkl
Robot type: unitree_g1
Processing time: 116.68 seconds

STEP-BY-STEP TIMING:
  Step 1 - Load SMPLX:        15.32s
  Step 2 - Align FPS:         17.60s
  Step 3 - Init Retarget:     2.03s
  Step 4 - Init Visualization: 0.00s
  Step 5 - Process Frames:    79.49s (avg: 0.388s/frame)
  Step 6 - Convert Arrays:    0.00s
  Step 7 - Forward Kinematics: 0.71s
  Step 8 - Save Data:         0.00s
Status: SUCCESS
==================================================

=== ERROR LOG - 2025-10-15 05:28:06 ===
Input file: /data/retarget/locomotion/raw/AMASS_SMPLXG/GRAB/s9/waterbottle_pick_all_stageii.npz
Output file: ../robot/ik_based/pkl/010325.pkl
Robot type: unitree_g1
Processing time: 233.88 seconds

STEP-BY-STEP TIMING (FAILED):
  Load Smplx: 13.12s
  Align Fps: 43.04s
  Init Retarget: 0.73s
  Init Visualization: 0.06s
  Process Frames: 176.53s (avg: 0.344s/frame)
  Convert Arrays: 0.00s
  Forward Kinematics: 0.14s
Error message: CUDA out of memory. Tried to allocate 2.00 MiB. GPU 0 has a total capacity of 23.58 GiB of which 73.00 MiB is free. Process 106491 has 328.00 MiB memory in use. Including non-PyTorch memory, this process has 364.00 MiB memory in use. Process 381781 has 328.00 MiB memory in use. Process 651230 has 336.00 MiB memory in use. Process 651323 has 336.00 MiB memory in use. Process 651495 has 336.00 MiB memory in use. Process 651680 has 336.00 MiB memory in use. Process 652122 has 336.00 MiB memory in use. Process 652552 has 336.00 MiB memory in use. Process 758984 has 326.00 MiB memory in use. Process 759061 has 326.00 MiB memory in use. Process 759140 has 326.00 MiB memory in use. Process 759277 has 326.00 MiB memory in use. Process 759587 has 328.00 MiB memory in use. Process 759754 has 326.00 MiB memory in use. Process 760292 has 326.00 MiB memory in use. Process 760574 has 328.00 MiB memory in use. Process 760908 has 326.00 MiB memory in use. Process 761223 has 328.00 MiB memory in use. Process 761507 has 326.00 MiB memory in use. Process 761784 has 328.00 MiB memory in use. Process 762065 has 326.00 MiB memory in use. Process 762398 has 326.00 MiB memory in use. Process 762712 has 328.00 MiB memory in use. Process 763207 has 326.00 MiB memory in use. Process 763626 has 326.00 MiB memory in use. Process 763813 has 326.00 MiB memory in use. Process 764099 has 60.00 MiB memory in use. Process 764277 has 326.00 MiB memory in use. Process 764470 has 326.00 MiB memory in use. Process 764800 has 326.00 MiB memory in use. Process 765270 has 326.00 MiB memory in use. Process 765495 has 326.00 MiB memory in use. Process 765996 has 326.00 MiB memory in use. Process 766580 has 328.00 MiB memory in use. Process 766668 has 326.00 MiB memory in use. Process 767492 has 326.00 MiB memory in use. Process 767720 has 326.00 MiB memory in use. Process 767797 has 328.00 MiB memory in use. Process 768541 has 326.00 MiB memory in use. Process 769125 has 326.00 MiB memory in use. Process 768850 has 326.00 MiB memory in use. Process 769686 has 326.00 MiB memory in use. Process 769459 has 326.00 MiB memory in use. Process 769827 has 326.00 MiB memory in use. Process 770524 has 326.00 MiB memory in use. Process 770888 has 326.00 MiB memory in use. Process 770316 has 326.00 MiB memory in use. Process 771275 has 326.00 MiB memory in use. Process 771105 has 326.00 MiB memory in use. Process 771771 has 326.00 MiB memory in use. Process 771619 has 326.00 MiB memory in use. Process 772148 has 326.00 MiB memory in use. Process 772899 has 326.00 MiB memory in use. Process 772664 has 326.00 MiB memory in use. Process 773176 has 326.00 MiB memory in use. Process 773279 has 326.00 MiB memory in use. Process 773623 has 326.00 MiB memory in use. Process 774056 has 326.00 MiB memory in use. Process 774461 has 326.00 MiB memory in use. Process 774726 has 328.00 MiB memory in use. Process 774904 has 326.00 MiB memory in use. Process 775026 has 326.00 MiB memory in use. Process 775459 has 326.00 MiB memory in use. Process 775737 has 326.00 MiB memory in use. Process 775847 has 326.00 MiB memory in use. Process 776237 has 326.00 MiB memory in use. Process 776606 has 328.00 MiB memory in use. Process 776978 has 326.00 MiB memory in use. Process 776886 has 326.00 MiB memory in use. Process 777350 has 326.00 MiB memory in use. Process 777531 has 326.00 MiB memory in use. Process 879266 has 326.00 MiB memory in use. Of the allocated memory 25.84 MiB is allocated by PyTorch, and 16.16 MiB is reserved by PyTorch but unallocated. If reserved but unallocated memory is large try setting PYTORCH_CUDA_ALLOC_CONF=expandable_segments:True to avoid fragmentation.  See documentation for Memory Management  (https://pytorch.org/docs/stable/notes/cuda.html#environment-variables)
Error type: OutOfMemoryError
==================================================

=== SUCCESS LOG - 2025-10-15 05:29:01 ===
Input file: /data/retarget/locomotion/raw/AMASS_SMPLXG/GRAB/s9/wineglass_drink_1_stageii.npz
Output file: ../robot/ik_based/pkl/010328.pkl
Robot type: unitree_g1
Processing time: 105.08 seconds

STEP-BY-STEP TIMING:
  Step 1 - Load SMPLX:        16.76s
  Step 2 - Align FPS:         16.03s
  Step 3 - Init Retarget:     0.71s
  Step 4 - Init Visualization: 0.02s
  Step 5 - Process Frames:    69.70s (avg: 0.294s/frame)
  Step 6 - Convert Arrays:    0.00s
  Step 7 - Forward Kinematics: 0.69s
  Step 8 - Save Data:         0.10s
Status: SUCCESS
==================================================

=== SUCCESS LOG - 2025-10-15 05:29:34 ===
Input file: /data/retarget/locomotion/raw/AMASS_SMPLXG/GRAB/s9/wineglass_drink_2_stageii.npz
Output file: ../robot/ik_based/pkl/010329.pkl
Robot type: unitree_g1
Processing time: 114.83 seconds

STEP-BY-STEP TIMING:
  Step 1 - Load SMPLX:        12.78s
  Step 2 - Align FPS:         8.02s
  Step 3 - Init Retarget:     0.31s
  Step 4 - Init Visualization: 0.00s
  Step 5 - Process Frames:    93.29s (avg: 0.331s/frame)
  Step 6 - Convert Arrays:    0.00s
  Step 7 - Forward Kinematics: 0.12s
  Step 8 - Save Data:         0.09s
Status: SUCCESS
==================================================

=== SUCCESS LOG - 2025-10-15 05:29:42 ===
Input file: /data/retarget/locomotion/raw/AMASS_SMPLXG/GRAB/s9/wineglass_pass_1_stageii.npz
Output file: ../robot/ik_based/pkl/010330.pkl
Robot type: unitree_g1
Processing time: 95.06 seconds

STEP-BY-STEP TIMING:
  Step 1 - Load SMPLX:        8.27s
  Step 2 - Align FPS:         16.82s
  Step 3 - Init Retarget:     1.11s
  Step 4 - Init Visualization: 0.00s
  Step 5 - Process Frames:    68.39s (avg: 0.342s/frame)
  Step 6 - Convert Arrays:    0.00s
  Step 7 - Forward Kinematics: 0.30s
  Step 8 - Save Data:         0.00s
Status: SUCCESS
==================================================

=== SUCCESS LOG - 2025-10-15 05:30:25 ===
Input file: /data/retarget/locomotion/raw/AMASS_SMPLXG/GRAB/s9/wineglass_toast_1_Retake_stageii.npz
Output file: ../robot/ik_based/pkl/010331.pkl
Robot type: unitree_g1
Processing time: 82.31 seconds

STEP-BY-STEP TIMING:
  Step 1 - Load SMPLX:        15.55s
  Step 2 - Align FPS:         14.76s
  Step 3 - Init Retarget:     1.17s
  Step 4 - Init Visualization: 0.00s
  Step 5 - Process Frames:    49.59s (avg: 0.252s/frame)
  Step 6 - Convert Arrays:    0.00s
  Step 7 - Forward Kinematics: 0.54s
  Step 8 - Save Data:         0.37s
Status: SUCCESS
==================================================
